30
Coordinates from ORCA-job Ni6 E -10408.737245074813
  Ni     -0.556340      1.751085     -0.016713
  Ni      1.028669      0.595546     -1.402190
  Ni     -1.257478     -0.133697     -1.328463
  C      -0.968116      3.149534      0.964215
  C       1.139113      2.334108     -0.643843
  C       2.607226      0.540234     -2.171364
  C       0.079689     -0.505820     -2.624408
  C      -2.557440     -1.108954     -1.997034
  C      -2.308852      1.236947     -0.538486
  O      -1.239366      4.074039      1.583951
  O       1.830128      3.275413     -0.637427
  O       3.627399      0.519178     -2.692151
  O       0.218029     -1.043127     -3.651929
  O      -3.408658     -1.728326     -2.448723
  O      -3.414706      1.607315     -0.479807
  Ni      1.553120     -0.881503      0.432276
  Ni     -0.734626     -1.608403      0.502325
  Ni     -0.033344      0.276975      1.812765
  C       3.221590     -1.186235     -0.026835
  C       0.807332     -2.549702     -0.086069
  C      -1.945526     -2.828400      0.139199
  C      -1.583365     -0.804094      1.999025
  C      -0.359041      1.435352      3.093428
  C       1.864334      0.289528      1.895055
  O       4.311224     -1.400366     -0.308266
  O       1.130770     -3.603052     -0.472645
  O      -2.728051     -3.636919     -0.076132
  O      -2.505314     -0.949107      2.700892
  O      -0.564598      2.174786      3.943841
  O       2.738040      0.714122      2.543043
30
Coordinates from ORCA-job Ni6 E -10408.745429199331
  Ni     -0.557386      1.754206     -0.019999
  Ni      1.028005      0.598326     -1.405766
  Ni     -1.258723     -0.131103     -1.331999
  C      -0.971619      3.159051      0.952933
  C       1.138864      2.338000     -0.647486
  C       2.604736      0.548675     -2.181865
  C       0.078743     -0.503314     -2.629179
  C      -2.560842     -1.100445     -2.008126
  C      -2.311045      1.240365     -0.542079
  O      -1.247348      4.097478      1.574335
  O       1.840489      3.288348     -0.636644
  O       3.634886      0.530632     -2.712208
  O       0.220198     -1.051375     -3.666138
  O      -3.422592     -1.722872     -2.469351
  O      -3.430495      1.612148     -0.478096
  Ni      1.554368     -0.884349      0.435577
  Ni     -0.733904     -1.611482      0.505776
  Ni     -0.032405      0.274345      1.816558
  C       3.224973     -1.194639     -0.016592
  C       0.808630     -2.553806     -0.082764
  C      -1.942633     -2.837670      0.150293
  C      -1.583429     -0.807005      2.003265
  C      -0.355791      1.426270      3.105247
  C       1.866329      0.287051      1.899235
  O       4.327651     -1.414271     -0.297057
  O       1.135065     -3.617784     -0.478881
  O      -2.732284     -3.658513     -0.062879
  O      -2.519137     -0.950255      2.710033
  O      -0.562074      2.169509      3.969987
  O       2.750612      0.720935      2.551397
30
Coordinates from ORCA-job Ni6 E -10408.748179638245
  Ni     -0.558928      1.758874     -0.024918
  Ni      1.027000      0.602501     -1.411146
  Ni     -1.260580     -0.127215     -1.337282
  C      -0.976518      3.172338      0.936584
  C       1.138292      2.343108     -0.652594
  C       2.600781      0.560856     -2.196870
  C       0.077336     -0.499560     -2.635520
  C      -2.565432     -1.088000     -2.023878
  C      -2.313696      1.245021     -0.547105
  O      -1.255502      4.119849      1.552988
  O       1.848326      3.295139     -0.633793
  O       3.633115      0.547588     -2.735039
  O       0.222247     -1.058656     -3.673515
  O      -3.432242     -1.707338     -2.493579
  O      -3.440513      1.613544     -0.474397
  Ni      1.556235     -0.888624      0.440526
  Ni     -0.732808     -1.616105      0.510953
  Ni     -0.030997      0.270404      1.822222
  C       3.229477     -1.206680     -0.001712
  C       0.810337     -2.559195     -0.077967
  C      -1.938194     -2.850730      0.166344
  C      -1.583217     -0.810996      2.008907
  C      -0.351086      1.413009      3.121855
  C       1.868813      0.283411      1.904847
  O       4.338064     -1.431878     -0.277171
  O       1.137197     -3.625973     -0.485372
  O      -2.728770     -3.679886     -0.040955
  O      -2.529502     -0.948749      2.713540
  O      -0.555971      2.152899      3.997122
  O       2.758578      0.727506      2.554454
30
Coordinates from ORCA-job Ni6 E -10408.750850960980
  Ni     -0.561504      1.766722     -0.033194
  Ni      1.025306      0.609534     -1.420218
  Ni     -1.263693     -0.120677     -1.346161
  C      -0.983819      3.192103      0.912268
  C       1.137507      2.351041     -0.660448
  C       2.594883      0.579166     -2.219402
  C       0.075159     -0.493775     -2.645392
  C      -2.572274     -1.069441     -2.047366
  C      -2.317855      1.252221     -0.554802
  O      -1.266247      4.148293      1.518940
  O       1.855495      3.301661     -0.631800
  O       3.625817      0.572813     -2.766387
  O       0.223796     -1.064505     -3.680944
  O      -3.442461     -1.681680     -2.527053
  O      -3.449738      1.615344     -0.471474
  Ni      1.559377     -0.895840      0.448863
  Ni     -0.730957     -1.623906      0.519681
  Ni     -0.028626      0.263768      1.831741
  C       3.236239     -1.224741      0.020583
  C       0.812981     -2.567621     -0.070576
  C      -1.931554     -2.870317      0.190397
  C      -1.583036     -0.817081      2.017586
  C      -0.344090      1.393241      3.146581
  C       1.872717      0.277844      1.913502
  O       4.348406     -1.456892     -0.246470
  O       1.139151     -3.634014     -0.490575
  O      -2.719961     -3.707714     -0.007585
  O      -2.539185     -0.947291      2.716834
  O      -0.546102      2.125129      4.032928
  O       2.766111      0.733074      2.557472
30
Coordinates from ORCA-job Ni6 E -10408.754090682853
  Ni     -0.565439      1.778764     -0.045945
  Ni      1.022698      0.620329     -1.434147
  Ni     -1.268445     -0.110623     -1.359790
  C      -0.993006      3.217071      0.882514
  C       1.136543      2.362558     -0.671694
  C       2.588113      0.602140     -2.247863
  C       0.072083     -0.485617     -2.659670
  C      -2.581190     -1.046744     -2.076734
  C      -2.323981      1.262599     -0.565783
  O      -1.278537      4.180000      1.476880
  O       1.858598      3.310755     -0.636996
  O       3.614705      0.603439     -2.802925
  O       0.222704     -1.062611     -3.692249
  O      -3.452610     -1.649527     -2.566023
  O      -3.457317      1.621852     -0.475930
  Ni      1.564182     -0.906936      0.461679
  Ni     -0.728094     -1.635891      0.533104
  Ni     -0.024992      0.253567      1.846320
  C       3.245236     -1.247413      0.048242
  C       0.816798     -2.579886     -0.060074
  C      -1.923726     -2.895224      0.220280
  C      -1.582967     -0.825807      2.030131
  C      -0.335580      1.369123      3.177643
  C       1.878443      0.269968      1.925974
  O       4.358265     -1.486471     -0.208832
  O       1.141948     -3.644505     -0.487265
  O      -2.707527     -3.739353      0.033090
  O      -2.544099     -0.950719      2.724699
  O      -0.533875      2.090100      4.073674
  O       2.772912      0.731522      2.565220
30
Coordinates from ORCA-job Ni6 E -10408.757456959984
  Ni     -0.570627      1.794711     -0.062943
  Ni      1.019216      0.634631     -1.452602
  Ni     -1.274688     -0.097244     -1.377865
  C      -1.002400      3.242886      0.853780
  C       1.135316      2.377086     -0.685951
  C       2.582583      0.625246     -2.276934
  C       0.068247     -0.475377     -2.677597
  C      -2.590962     -1.024907     -2.106342
  C      -2.331636      1.275720     -0.579681
  O      -1.289835      4.208422      1.436914
  O       1.856916      3.321575     -0.649413
  O       3.603167      0.632581     -2.836639
  O       0.218899     -1.052590     -3.706364
  O      -3.460957     -1.618719     -2.601838
  O      -3.462181      1.632721     -0.487918
  Ni      1.570507     -0.921669      0.478702
  Ni     -0.724250     -1.651788      0.550936
  Ni     -0.020175      0.239991      1.865587
  C       3.255392     -1.270315      0.075499
  C       0.821596     -2.595365     -0.046819
  C      -1.916864     -2.921124      0.249872
  C      -1.582770     -0.836959      2.046077
  C      -0.327466      1.346029      3.209360
  C       1.885605      0.259977      1.941727
  O       4.366168     -1.513930     -0.173131
  O       1.145372     -3.656417     -0.475091
  O      -2.694923     -3.768296      0.071632
  O      -2.543166     -0.959176      2.736706
  O      -0.522314      2.056347      4.110674
  O       2.778072      0.722410      2.577192
30
Coordinates from ORCA-job Ni6 E -10408.759486590568
  Ni     -0.576169      1.811853     -0.081416
  Ni      1.015375      0.650077     -1.472524
  Ni     -1.281324     -0.082734     -1.397343
  C      -1.010104      3.264260      0.831942
  C       1.134321      2.391520     -0.699943
  C       2.579473      0.643699     -2.300549
  C       0.064517     -0.465399     -2.695391
  C      -2.599601     -1.008363     -2.130088
  C      -2.339283      1.288689     -0.593316
  O      -1.298545      4.229779      1.408142
  O       1.854458      3.331872     -0.662260
  O       3.595580      0.654356     -2.861669
  O       0.214730     -1.041447     -3.720053
  O      -3.467576     -1.596512     -2.628284
  O      -3.466011      1.643664     -0.500595
  Ni      1.577233     -0.937639      0.497104
  Ni     -0.719995     -1.668984      0.570281
  Ni     -0.014938      0.225202      1.886287
  C       3.264581     -1.288734      0.096645
  C       0.826374     -2.610880     -0.033811
  C      -1.912302     -2.942884      0.273262
  C      -1.582810     -0.847928      2.061838
  C      -0.321338      1.328573      3.235319
  C       1.892791      0.250220      1.957237
  O       4.372655     -1.534155     -0.147180
  O       1.148767     -3.667780     -0.461895
  O      -2.686050     -3.790663      0.100229
  O      -2.541398     -0.967670      2.748271
  O      -0.514038      2.031914      4.138402
  O       2.782468      0.712553      2.588885
30
Coordinates from ORCA-job Ni6 E -10408.760381139424
  Ni     -0.580120      1.824172     -0.094896
  Ni      1.012496      0.661272     -1.486960
  Ni     -1.286019     -0.072191     -1.411382
  C      -1.013696      3.274288      0.823581
  C       1.134146      2.400571     -0.708283
  C       2.579465      0.651682     -2.311145
  C       0.062317     -0.459556     -2.706565
  C      -2.604172     -1.002131     -2.140450
  C      -2.344271      1.296628     -0.601443
  O      -1.302389      4.238601      1.399628
  O       1.854687      3.338359     -0.668302
  O       3.595129      0.662151     -2.870959
  O       0.212688     -1.036389     -3.728756
  O      -3.471290     -1.590127     -2.637936
  O      -3.469619      1.649684     -0.506713
  Ni      1.581994     -0.949259      0.510415
  Ni     -0.716799     -1.681466      0.584383
  Ni     -0.011087      0.214367      1.901155
  C       3.269631     -1.296859      0.105149
  C       0.829394     -2.620810     -0.026085
  C      -1.911196     -2.953524      0.283303
  C      -1.583395     -0.854436      2.071453
  C      -0.318941      1.321887      3.247307
  C       1.897505      0.244554      1.966656
  O       4.376790     -1.541342     -0.138946
  O       1.151060     -3.675307     -0.455882
  O      -2.684203     -3.800591      0.110304
  O      -2.542877     -0.971115      2.754181
  O      -0.511546      2.024614      4.149581
  O       2.786159      0.708727      2.595138
30
Coordinates from ORCA-job Ni6 E -10408.761258949769
  Ni     -0.583875      1.835989     -0.108100
  Ni      1.009561      0.672150     -1.500948
  Ni     -1.290412     -0.061892     -1.424913
  C      -1.014734      3.277274      0.824298
  C       1.134529      2.407623     -0.714269
  C       2.581952      0.652925     -2.313445
  C       0.060764     -0.455424     -2.715295
  C      -2.606372     -1.002910     -2.142159
  C      -2.348338      1.302612     -0.607320
  O      -1.302899      4.238330      1.406232
  O       1.857363      3.342997     -0.669760
  O       3.600302      0.659795     -2.868612
  O       0.212081     -1.035559     -3.735055
  O      -3.472958     -1.595612     -2.635207
  O      -3.473851      1.652802     -0.508477
  Ni      1.586421     -0.960539      0.523258
  Ni     -0.713572     -1.693523      0.598117
  Ni     -0.007297      0.203746      1.915343
  C       3.272339     -1.298400      0.105227
  C       0.831749     -2.628754     -0.020583
  C      -1.912652     -2.957444      0.284741
  C      -1.584513     -0.859031      2.078569
  C      -0.319036      1.322473      3.250508
  C       1.901379      0.240677      1.973569
  O       4.379360     -1.538935     -0.143859
  O       1.152866     -3.681201     -0.454819
  O      -2.687642     -3.801852      0.106998
  O      -2.547401     -0.971070      2.756632
  O      -0.513342      2.029992      4.148800
  O       2.790070      0.709219      2.598059
30
Coordinates from ORCA-job Ni6 E -10408.762061569611
  Ni     -0.586172      1.843359     -0.116637
  Ni      1.007522      0.679112     -1.509810
  Ni     -1.293007     -0.055221     -1.433421
  C      -1.012499      3.271191      0.834487
  C       1.135304      2.409978     -0.715604
  C       2.585966      0.646336     -2.305629
  C       0.060448     -0.454473     -2.718234
  C      -2.604888     -1.010887     -2.133588
  C      -2.349849      1.304396     -0.608757
  O      -1.299236      4.227123      1.427394
  O       1.861612      3.343583     -0.665499
  O       3.609444      0.646650     -2.853360
  O       0.213328     -1.039715     -3.735951
  O      -3.471094     -1.612356     -2.618912
  O      -3.476882      1.651410     -0.504689
  Ni      1.588970     -0.967688      0.531307
  Ni     -0.711400     -1.701085      0.606859
  Ni     -0.004854      0.196907      1.924037
  C       3.271121     -1.292125      0.096090
  C       0.832501     -2.631642     -0.019401
  C      -1.916157     -2.952348      0.276327
  C      -1.585723     -0.859936      2.080395
  C      -0.321779      1.330614      3.242600
  C       1.902853      0.240047      1.975256
  O       4.378479     -1.526295     -0.161902
  O       1.153336     -3.682745     -0.459673
  O      -2.695402     -3.792243      0.089729
  O      -2.553286     -0.967240      2.754206
  O      -0.519308      2.047539      4.133959
  O       2.792493      0.714210      2.595950
30
Coordinates from ORCA-job Ni6 E -10408.762700775062
  Ni     -0.587119      1.846575     -0.120731
  Ni      1.006348      0.682406     -1.513827
  Ni     -1.293933     -0.051963     -1.437197
  C      -1.007769      3.258168      0.851167
  C       1.136346      2.408211     -0.712876
  C       2.590574      0.634055     -2.290250
  C       0.061202     -0.456243     -2.716054
  C      -2.600329     -1.023796     -2.117348
  C      -2.349087      1.302534     -0.606352
  O      -1.292107      4.206758      1.458915
  O       1.866767      3.339894     -0.656149
  O       3.620582      0.625260     -2.827806
  O       0.216149     -1.047929     -3.731273
  O      -3.465682     -1.637084     -2.591821
  O      -3.478069      1.645789     -0.496012
  Ni      1.589764     -0.970915      0.534820
  Ni     -0.710258     -1.704406      0.610857
  Ni     -0.003708      0.193677      1.927568
  C       3.266568     -1.280124      0.080424
  C       0.831831     -2.630018     -0.021991
  C      -1.920767     -2.940317      0.260872
  C      -1.586914     -0.857665      2.077594
  C      -0.326339      1.343885      3.226255
  C       1.902163      0.242213      1.972372
  O       4.373929     -1.505774     -0.189594
  O       1.152321     -3.679631     -0.469576
  O      -2.705673     -3.773565      0.062050
  O      -2.559683     -0.959993      2.746977
  O      -0.528224      2.073562      4.107614
  O       2.792960      0.722893      2.588903
30
Coordinates from ORCA-job Ni6 E -10408.763056464466
  Ni     -0.587595      1.848297     -0.123269
  Ni      1.005408      0.684455     -1.516074
  Ni     -1.294211     -0.049844     -1.439255
  C      -1.002386      3.243305      0.869170
  C       1.137586      2.405074     -0.708586
  C       2.595014      0.620413     -2.272937
  C       0.062378     -0.459079     -2.712101
  C      -2.594733     -1.037845     -2.099004
  C      -2.347658      1.299426     -0.602534
  O      -1.283556      4.182460      1.493576
  O       1.872581      3.333303     -0.643457
  O       3.631659      0.600894     -2.798165
  O       0.219940     -1.058622     -3.722952
  O      -3.458227     -1.664422     -2.560293
  O      -3.477979      1.637517     -0.484192
  Ni      1.589840     -0.972681      0.536694
  Ni     -0.709453     -1.706133      0.613141
  Ni     -0.003038      0.191734      1.929168
  C       3.260923     -1.266725      0.063267
  C       0.830650     -2.626818     -0.026109
  C      -1.925428     -2.926389      0.243760
  C      -1.588221     -0.854235      2.073152
  C      -0.331279      1.358196      3.207643
  C       1.900769      0.245505      1.967846
  O       4.367254     -1.482368     -0.220462
  O       1.150187     -3.673456     -0.482736
  O      -2.716261     -3.751028      0.030742
  O      -2.566460     -0.950338      2.736427
  O      -0.537996      2.101913      4.076577
  O       2.792133      0.733950      2.578493
30
Coordinates from ORCA-job Ni6 E -10408.763154481578
  Ni     -0.588073      1.849896     -0.125532
  Ni      1.004565      0.686338     -1.518072
  Ni     -1.294497     -0.047918     -1.441115
  C      -0.999395      3.235067      0.879326
  C       1.138709      2.403419     -0.705670
  C       2.597569      0.612716     -2.263196
  C       0.063208     -0.461116     -2.709899
  C      -2.591475     -1.046093     -2.088333
  C      -2.347181      1.297617     -0.600033
  O      -1.278168      4.166980      1.515198
  O       1.877793      3.327470     -0.632319
  O       3.638428      0.585421     -2.779255
  O       0.223297     -1.068102     -3.715617
  O      -3.453091     -1.681984     -2.539817
  O      -3.477986      1.630377     -0.473800
  Ni      1.589939     -0.974204      0.538407
  Ni     -0.708746     -1.707638      0.615166
  Ni     -0.002462      0.190021      1.930660
  C       3.257751     -1.259202      0.053512
  C       0.829955     -2.625073     -0.029087
  C      -1.928105     -2.918622      0.234084
  C      -1.589474     -0.851994      2.070439
  C      -0.334062      1.366292      3.197179
  C       1.900168      0.247898      1.965036
  O       4.362759     -1.467620     -0.239809
  O       1.148108     -3.668022     -0.494434
  O      -2.722770     -3.736594      0.010904
  O      -2.572353     -0.941895      2.727256
  O      -0.544037      2.119385      4.056950
  O       2.791469      0.743634      2.569398
30
Coordinates from ORCA-job Ni6 E -10408.763194118967
  Ni     -0.588337      1.850720     -0.126660
  Ni      1.004116      0.687332     -1.519032
  Ni     -1.294624     -0.046909     -1.442016
  C      -0.998943      3.233897      0.881227
  C       1.139588      2.402971     -0.704111
  C       2.598210      0.611291     -2.261520
  C       0.063686     -0.462385     -2.709175
  C      -2.590875     -1.048053     -2.086073
  C      -2.347440      1.296909     -0.598748
  O      -1.276707      4.162743      1.521549
  O       1.881196      3.324155     -0.625584
  O       3.640624      0.580702     -2.773682
  O       0.225393     -1.074072     -3.711394
  O      -3.451504     -1.687773     -2.533367
  O      -3.478338      1.626250     -0.467509
  Ni      1.589944     -0.974878      0.539218
  Ni     -0.708399     -1.708319      0.616123
  Ni     -0.002209      0.189206      1.931345
  C       3.257316     -1.257899      0.051623
  C       0.829701     -2.624540     -0.030884
  C      -1.928733     -2.917412      0.232267
  C      -1.590487     -0.850901      2.069315
  C      -0.334586      1.367861      3.195455
  C       1.900210      0.249341      1.963835
  O       4.361591     -1.463402     -0.245473
  O       1.146788     -3.664970     -0.501744
  O      -2.724823     -3.732479      0.004890
  O      -2.576079     -0.936894      2.721989
  O      -0.545765      2.124381      4.051569
  O       2.791327      0.749584      2.564097
30
Coordinates from ORCA-job Ni6 E -10408.763270258507
  Ni     -0.588759      1.851991     -0.128519
  Ni      1.003210      0.689090     -1.520403
  Ni     -1.294636     -0.045087     -1.443280
  C      -0.999065      3.234537      0.881914
  C       1.142270      2.401755     -0.699507
  C       2.598864      0.610739     -2.261257
  C       0.065124     -0.466331     -2.707142
  C      -2.590597     -1.050041     -2.084341
  C      -2.348451      1.294861     -0.594912
  O      -1.274886      4.157556      1.530580
  O       1.889653      3.316433     -0.609315
  O       3.644241      0.573603     -2.765842
  O       0.230542     -1.088752     -3.701421
  O      -3.449183     -1.697324     -2.523392
  O      -3.479582      1.616551     -0.452401
  Ni      1.589625     -0.975683      0.540271
  Ni     -0.707796     -1.709121      0.617463
  Ni     -0.001896      0.187980      1.932000
  C       3.257535     -1.257697      0.050716
  C       0.828995     -2.623043     -0.036324
  C      -1.929301     -2.917601      0.231530
  C      -1.593546     -0.847777      2.066193
  C      -0.334805      1.368596      3.195404
  C       1.900491      0.253669      1.960491
  O       4.360383     -1.457773     -0.253420
  O       1.143554     -3.657833     -0.519691
  O      -2.728073     -3.727034     -0.003995
  O      -2.585159     -0.925093      2.709714
  O      -0.548147      2.131256      4.044858
  O       2.791238      0.764027      2.551561
30
Coordinates from ORCA-job Ni6 E -10408.763318598663
  Ni     -0.588844      1.852233     -0.129112
  Ni      1.002665      0.689806     -1.520510
  Ni     -1.294317     -0.044266     -1.443333
  C      -0.999683      3.236580      0.880572
  C       1.144991      2.400184     -0.694596
  C       2.598844      0.611625     -2.262742
  C       0.066652     -0.470586     -2.704694
  C      -2.590824     -1.050245     -2.084654
  C      -2.349342      1.292502     -0.590725
  O      -1.274381      4.156351      1.534120
  O       1.896236      3.310816     -0.596915
  O       3.646101      0.570428     -2.762870
  O       0.234510     -1.100050     -3.694019
  O      -3.448206     -1.702271     -2.518743
  O      -3.480812      1.609438     -0.441086
  Ni      1.588997     -0.975500      0.540158
  Ni     -0.707557     -1.708900      0.617534
  Ni     -0.001952      0.187758      1.931448
  C       3.258159     -1.258906      0.051742
  C       0.828182     -2.621191     -0.042094
  C      -1.929209     -2.919140      0.232697
  C      -1.596579     -0.844471      2.062799
  C      -0.334496      1.367690      3.197134
  C       1.900644      0.258210      1.956870
  O       4.360324     -1.456014     -0.256363
  O       1.141109     -3.652570     -0.533549
  O      -2.729594     -3.725402     -0.007646
  O      -2.592057     -0.916442      2.700805
  O      -0.549037      2.133753      4.043070
  O       2.791320      0.775038      2.542233
30
Coordinates from ORCA-job Ni6 E -10408.763364378456
  Ni     -0.588717      1.851875     -0.129065
  Ni      1.002199      0.690040     -1.519823
  Ni     -1.293683     -0.043846     -1.442608
  C      -1.000480      3.239243      0.878306
  C       1.148538      2.397704     -0.687897
  C       2.598442      0.613090     -2.264896
  C       0.068721     -0.476370     -2.701004
  C      -2.591106     -1.049740     -2.085608
  C      -2.350255      1.289090     -0.584923
  O      -1.274425      4.156962      1.535280
  O       1.902933      3.305411     -0.584414
  O       3.647196      0.568811     -2.761933
  O       0.238505     -1.111390     -3.686745
  O      -3.447663     -1.705452     -2.516115
  O      -3.482237      1.602604     -0.430021
  Ni      1.587969     -0.974653      0.539248
  Ni     -0.707495     -1.707976      0.616803
  Ni     -0.002269      0.188112      1.929927
  C       3.258791     -1.260752      0.053592
  C       0.826977     -2.618370     -0.049896
  C      -1.928741     -2.921299      0.234768
  C      -1.600442     -0.839973      2.058040
  C      -0.333995      1.366040      3.199446
  C       1.900630      0.264294      1.951779
  O       4.360697     -1.456119     -0.257016
  O       1.138709     -3.647394     -0.547610
  O      -2.730250     -3.725649     -0.008836
  O      -2.598861     -0.908167      2.692325
  O      -0.549308      2.134285      4.043387
  O       2.791458      0.786046      2.533041
30
Coordinates from ORCA-job Ni6 E -10408.763399448904
  Ni     -0.588508      1.851356     -0.128789
  Ni      1.001856      0.690034     -1.518938
  Ni     -1.293028     -0.043635     -1.441697
  C      -1.000961      3.241022      0.876511
  C       1.151794      2.395096     -0.681538
  C       2.597902      0.614174     -2.266317
  C       0.070674     -0.481815     -2.697225
  C      -2.591089     -1.049088     -2.086211
  C      -2.350867      1.285734     -0.579354
  O      -1.274765      4.158491      1.534267
  O       1.907844      3.301518     -0.575129
  O       3.647179      0.568866     -2.762652
  O       0.241412     -1.119611     -3.681409
  O      -3.447420     -1.706121     -2.515719
  O      -3.483286      1.597805     -0.422177
  Ni      1.586945     -0.973736      0.538172
  Ni     -0.707534     -1.706977      0.615887
  Ni     -0.002650      0.188619      1.928258
  C       3.258920     -1.262144      0.055044
  C       0.825738     -2.615483     -0.057264
  C      -1.928155     -2.922888      0.236536
  C      -1.603893     -0.835732      2.053425
  C      -0.333672      1.364700      3.200753
  C       1.900428      0.269973      1.946778
  O       4.360995     -1.457601     -0.255679
  O       1.137004     -3.643545     -0.558037
  O      -2.729795     -3.727274     -0.007506
  O      -2.603620     -0.902458      2.686431
  O      -0.549074      2.133145      4.044783
  O       2.791467      0.794033      2.526326
30
Coordinates from ORCA-job Ni6 E -10408.763434200659
  Ni     -0.588303      1.850981     -0.128701
  Ni      1.001452      0.690173     -1.518152
  Ni     -1.292357     -0.043216     -1.440873
  C      -1.001147      3.242071      0.875139
  C       1.155287      2.392089     -0.674609
  C       2.597234      0.614907     -2.267018
  C       0.072800     -0.487695     -2.692892
  C      -2.590696     -1.048394     -2.086285
  C      -2.351341      1.282041     -0.573251
  O      -1.275264      4.160591      1.531604
  O       1.912678      3.297409     -0.565591
  O       3.646220      0.570090     -2.764414
  O       0.244313     -1.127784     -3.675760
  O      -3.447158     -1.704973     -2.516684
  O      -3.484107      1.592959     -0.414366
  Ni      1.585852     -0.972956      0.537158
  Ni     -0.707561     -1.706117      0.615079
  Ni     -0.003038      0.189005      1.926574
  C       3.258510     -1.263164      0.056099
  C       0.824289     -2.612207     -0.065311
  C      -1.927437     -2.924073      0.238106
  C      -1.607489     -0.831179      2.048348
  C      -0.333560      1.363663      3.201025
  C       1.900055      0.276081      1.941156
  O       4.361003     -1.460192     -0.252773
  O       1.135296     -3.639381     -0.568653
  O      -2.728293     -3.730055     -0.004036
  O      -2.608098     -0.896903      2.680544
  O      -0.548509      2.130688      4.046699
  O       2.791210      0.801998      2.519368
30
Coordinates from ORCA-job Ni6 E -10408.763471665075
  Ni     -0.588161      1.850976     -0.129066
  Ni      1.000907      0.690692     -1.517681
  Ni     -1.291704     -0.042343     -1.440344
  C      -1.001059      3.242504      0.874088
  C       1.159093      2.388711     -0.667025
  C       2.596425      0.615376     -2.267038
  C       0.075145     -0.494077     -2.687967
  C      -2.589900     -1.047601     -2.085825
  C      -2.351713      1.278034     -0.566550
  O      -1.275892      4.163207      1.527270
  O       1.918466      3.291892     -0.553613
  O       3.644282      0.572456     -2.767083
  O       0.247915     -1.137909     -3.668228
  O      -3.446742     -1.702062     -2.518812
  O      -3.484714      1.586628     -0.404436
  Ni      1.584701     -0.972498      0.536396
  Ni     -0.707515     -1.705595      0.614600
  Ni     -0.003387      0.189076      1.925036
  C       3.257548     -1.263902      0.056824
  C       0.822594     -2.608536     -0.074208
  C      -1.926554     -2.924985      0.239607
  C      -1.611289     -0.826310      2.042785
  C      -0.333674      1.362873      3.200272
  C       1.899518      0.282692      1.934820
  O       4.360596     -1.463903     -0.248289
  O       1.133107     -3.633765     -0.581917
  O      -2.725657     -3.734008      0.001649
  O      -2.613385     -0.889922      2.672938
  O      -0.547657      2.126898      4.048968
  O       2.790550      0.811860      2.510356
30
Coordinates from ORCA-job Ni6 E -10408.763507761640
  Ni     -0.588108      1.851418     -0.129897
  Ni      1.000274      0.691607     -1.517598
  Ni     -1.291129     -0.041037     -1.440186
  C      -1.000795      3.242591      0.873154
  C       1.162788      2.385377     -0.659637
  C       2.595526      0.615779     -2.266619
  C       0.077474     -0.500250     -2.682956
  C      -2.588848     -1.046611     -2.085089
  C      -2.351943      1.274200     -0.559989
  O      -1.276605      4.166201      1.521610
  O       1.925413      3.284589     -0.538741
  O       3.641596      0.575765     -2.770377
  O       0.252444     -1.150596     -3.658285
  O      -3.446187     -1.697738     -2.521809
  O      -3.485059      1.578278     -0.391619
  Ni      1.583607     -0.972449      0.535982
  Ni     -0.707402     -1.705519      0.614525
  Ni     -0.003668      0.188797      1.923810
  C       3.256222     -1.264528      0.057403
  C       0.820810     -2.604866     -0.083046
  C      -1.925545     -2.925794      0.241149
  C      -1.614848     -0.821725      2.037376
  C      -0.333957      1.362204      3.198835
  C       1.898861      0.289057      1.928445
  O       4.359828     -1.468428     -0.242637
  O       1.130238     -3.626354     -0.598459
  O      -2.722163     -3.738782      0.008992
  O      -2.619808     -0.880985      2.663024
  O      -0.546629      2.122119      4.051396
  O       2.789458      0.824137      2.498772
30
Coordinates from ORCA-job Ni6 E -10408.763530827084
  Ni     -0.588122      1.852056     -0.130712
  Ni      0.999850      0.692486     -1.517743
  Ni     -1.290777     -0.039883     -1.440269
  C      -1.000597      3.242778      0.872260
  C       1.165119      2.383218     -0.654910
  C       2.594842      0.616285     -2.266293
  C       0.079037     -0.504177     -2.679484
  C      -2.588044     -1.045601     -2.084645
  C      -2.351952      1.271808     -0.555723
  O      -1.277173      4.168685      1.516803
  O       1.931432      3.277749     -0.525556
  O       3.639375      0.578705     -2.773034
  O       0.256590     -1.162144     -3.648883
  O      -3.445741     -1.693931     -2.524372
  O      -3.485082      1.570365     -0.379638
  Ni      1.582911     -0.972675      0.535864
  Ni     -0.707329     -1.705782      0.614674
  Ni     -0.003851      0.188428      1.923129
  C       3.255192     -1.265147      0.057974
  C       0.819518     -2.602386     -0.088933
  C      -1.924741     -2.926550      0.242481
  C      -1.616965     -0.818964      2.033917
  C      -0.334227      1.361622      3.197680
  C       1.898295      0.293049      1.924155
  O       4.359142     -1.472128     -0.238003
  O       1.127479     -3.619404     -0.613365
  O      -2.719298     -3.742642      0.015051
  O      -2.625491     -0.872754      2.653782
  O      -0.545873      2.118236      4.053200
  O       2.788323      0.835155      2.488123
30
Coordinates from ORCA-job Ni6 E -10408.763539269534
  Ni     -0.588128      1.852465     -0.130999
  Ni      0.999805      0.692879     -1.517775
  Ni     -1.290645     -0.039409     -1.440274
  C      -1.000612      3.243292      0.871471
  C       1.165775      2.382543     -0.653473
  C       2.594567      0.616868     -2.266393
  C       0.079607     -0.505378     -2.678121
  C      -2.587794     -1.044867     -2.084744
  C      -2.351815      1.271107     -0.554317
  O      -1.277447      4.170052      1.514543
  O       1.934476      3.274090     -0.518818
  O       3.638535      0.580167     -2.774193
  O       0.258870     -1.168399     -3.643611
  O      -3.445595     -1.692232     -2.525496
  O      -3.484968      1.565968     -0.372996
  Ni      1.582693     -0.972837      0.535770
  Ni     -0.707388     -1.706021      0.614687
  Ni     -0.003976      0.188316      1.922846
  C       3.254876     -1.265745      0.058536
  C       0.818970     -2.601473     -0.090990
  C      -1.924374     -2.927203      0.243345
  C      -1.617443     -0.818291      2.032856
  C      -0.334346      1.361157      3.197430
  C       1.897972      0.294180      1.922657
  O       4.358931     -1.473861     -0.235955
  O       1.125858     -3.615598     -0.621362
  O      -2.718165     -3.744424      0.017687
  O      -2.628399     -0.868414      2.648844
  O      -0.545664      2.116608      4.053960
  O       2.787667      0.840914      2.482417
30
Coordinates from ORCA-job Ni6 E -10408.763541094204
  Ni     -0.588103      1.852641     -0.130922
  Ni      0.999948      0.692938     -1.517649
  Ni     -1.290591     -0.039362     -1.440139
  C      -1.000714      3.243883      0.870867
  C       1.165759      2.382495     -0.653384
  C       2.594525      0.617370     -2.266642
  C       0.079759     -0.505490     -2.677698
  C      -2.587812     -1.044407     -2.085018
  C      -2.351669      1.271065     -0.554077
  O      -1.277547      4.170749      1.513813
  O       1.935328      3.273064     -0.516962
  O       3.638488      0.580694     -2.774484
  O       0.259667     -1.170453     -3.641765
  O      -3.445609     -1.691818     -2.525748
  O      -3.484888      1.564557     -0.370780
  Ni      1.582669     -0.972864      0.535596
  Ni     -0.707520     -1.706128      0.614535
  Ni     -0.004092      0.188406      1.922657
  C       3.254915     -1.266236      0.058981
  C       0.818774     -2.601251     -0.091418
  C      -1.924270     -2.927700      0.243840
  C      -1.617315     -0.818420      2.032781
  C      -0.334394      1.360842      3.197583
  C       1.897802      0.294167      1.922378
  O       4.358991     -1.474462     -0.235408
  O       1.125222     -3.614365     -0.624037
  O      -2.718023     -3.745022      0.018342
  O      -2.629140     -0.867291      2.647495
  O      -0.545752      2.116286      4.054130
  O       2.787433      0.842570      2.480661
