30
Coordinates from ORCA-job Ni6_rotated E -10408.771592631940
  Ni     -1.552516      0.880784     -0.431578
  Ni      0.735108      1.608092     -0.501976
  Ni      0.033825     -0.277389     -1.812355
  C      -3.221053      1.186471      0.026802
  C      -0.807409      2.549897      0.084739
  C       1.945304      2.828953     -0.139482
  C       1.583153      0.804718     -1.999569
  C       0.358999     -1.434779     -3.093985
  C      -1.863978     -0.289167     -1.895279
  O      -4.310409      1.401302      0.308743
  O      -1.131155      3.603705      0.469772
  O       2.727881      3.637354      0.076101
  O       2.504513      0.950313     -2.702082
  O       0.564675     -2.173992     -3.944568
  O      -2.737643     -0.712943     -2.543834
  Ni      1.552518     -0.880779      0.431581
  Ni     -0.735104     -1.608093      0.501973
  Ni     -0.033830      0.277388      1.812356
  C       3.221057     -1.186458     -0.026796
  C       0.807417     -2.549894     -0.084737
  C      -1.945293     -2.828959      0.139470
  C      -1.583157     -0.804724      1.999562
  C      -0.359013      1.434770      3.093991
  C       1.863972      0.289174      1.895284
  O       4.310415     -1.401283     -0.308735
  O       1.131167     -3.603702     -0.469769
  O      -2.727865     -3.637363     -0.076120
  O      -2.504520     -0.950321      2.702070
  O      -0.564696      2.173975      3.944579
  O       2.737634      0.712952      2.543841
30
Coordinates from ORCA-job Ni6_rotated E -10408.777979682316
  Ni     -1.552822      0.880389     -0.430814
  Ni      0.735698      1.607964     -0.501142
  Ni      0.034152     -0.278202     -1.812159
  C      -3.222181      1.184141      0.030545
  C      -0.807525      2.550723      0.085449
  C       1.947788      2.827736     -0.135331
  C       1.584179      0.804700     -1.999981
  C       0.360591     -1.438853     -3.092177
  C      -1.864742     -0.289807     -1.895641
  O      -4.322943      1.399339      0.319366
  O      -1.134563      3.616187      0.478885
  O       2.739535      3.643683      0.085604
  O       2.518937      0.949630     -2.708698
  O       0.568954     -2.189566     -3.949118
  O      -2.749280     -0.721791     -2.549773
  Ni      1.552824     -0.880385      0.430817
  Ni     -0.735694     -1.607965      0.501139
  Ni     -0.034157      0.278201      1.812159
  C       3.222185     -1.184128     -0.030539
  C       0.807533     -2.550720     -0.085447
  C      -1.947777     -2.827742      0.135319
  C      -1.584183     -0.804706      1.999974
  C      -0.360605      1.438844      3.092183
  C       1.864736      0.289814      1.895646
  O       4.322949     -1.399320     -0.319358
  O       1.134575     -3.616184     -0.478882
  O      -2.739519     -3.643692     -0.085623
  O      -2.518944     -0.949638      2.708687
  O      -0.568975      2.189549      3.949129
  O       2.749271      0.721800      2.549780
30
Coordinates from ORCA-job Ni6_rotated E -10408.778517570594
  Ni     -1.553168      0.879806     -0.429760
  Ni      0.736446      1.607716     -0.500014
  Ni      0.034575     -0.279291     -1.811818
  C      -3.223082      1.180588      0.035909
  C      -0.807472      2.551054      0.086210
  C       1.950878      2.825428     -0.129510
  C       1.584930      0.804538     -2.000013
  C       0.362702     -1.444372     -3.088942
  C      -1.865162     -0.290426     -1.895644
  O      -4.326159      1.393566      0.330629
  O      -1.134730      3.618500      0.487849
  O       2.745766      3.641665      0.096175
  O       2.527186      0.945662     -2.707248
  O       0.572332     -2.201742     -3.944153
  O      -2.753538     -0.729513     -2.548168
  Ni      1.553170     -0.879801      0.429763
  Ni     -0.736442     -1.607717      0.500011
  Ni     -0.034580      0.279290      1.811818
  C       3.223086     -1.180575     -0.035903
  C       0.807480     -2.551051     -0.086208
  C      -1.950868     -2.825434      0.129498
  C      -1.584934     -0.804544      2.000007
  C      -0.362716      1.444363      3.088948
  C       1.865156      0.290433      1.895648
  O       4.326165     -1.393548     -0.330621
  O       1.134742     -3.618497     -0.487846
  O      -2.745751     -3.641674     -0.096194
  O      -2.527193     -0.945671      2.707237
  O      -0.572353      2.201726      3.944164
  O       2.753530      0.729522      2.548174
30
Coordinates from ORCA-job Ni6_rotated E -10408.778676580152
  Ni     -1.553522      0.879163     -0.428606
  Ni      0.737272      1.607417     -0.498758
  Ni      0.035048     -0.280483     -1.811427
  C      -3.223816      1.176566      0.041896
  C      -0.807327      2.551153      0.087060
  C       1.954157      2.822653     -0.123029
  C       1.585631      0.804260     -1.999814
  C       0.365000     -1.450420     -3.085096
  C      -1.865418     -0.291080     -1.895470
  O      -4.326484      1.386434      0.342450
  O      -1.134068      3.617959      0.494234
  O       2.750448      3.636957      0.107407
  O       2.531752      0.942175     -2.704455
  O       0.575506     -2.213214     -3.936000
  O      -2.754954     -0.734732     -2.545429
  Ni      1.553524     -0.879158      0.428609
  Ni     -0.737268     -1.607419      0.498755
  Ni     -0.035053      0.280482      1.811427
  C       3.223820     -1.176554     -0.041890
  C       0.807335     -2.551150     -0.087058
  C      -1.954146     -2.822659      0.123017
  C      -1.585635     -0.804266      1.999807
  C      -0.365014      1.450411      3.085102
  C       1.865412      0.291087      1.895474
  O       4.326490     -1.386416     -0.342442
  O       1.134080     -3.617955     -0.494231
  O      -2.750432     -3.636966     -0.107426
  O      -2.531759     -0.942183      2.704445
  O      -0.575527      2.213198      3.936010
  O       2.754946      0.734742      2.545435
30
Coordinates from ORCA-job Ni6_rotated E -10408.779022896942
  Ni     -1.554650      0.877091     -0.424860
  Ni      0.740015      1.606416     -0.494605
  Ni      0.036628     -0.284376     -1.810157
  C      -3.225813      1.163561      0.061209
  C      -0.806745      2.551263      0.089835
  C       1.964506      2.813454     -0.102076
  C       1.587875      0.803250     -1.998910
  C       0.372340     -1.469773     -3.072403
  C      -1.866036     -0.293154     -1.894803
  O      -4.325448      1.362848      0.380566
  O      -1.132032      3.615819      0.507758
  O       2.764207      3.620297      0.143640
  O       2.540870      0.934632     -2.697647
  O       0.585380     -2.249274     -3.907784
  O      -2.757094     -0.745485     -2.539012
  Ni      1.554652     -0.877087      0.424863
  Ni     -0.740012     -1.606417      0.494602
  Ni     -0.036633      0.284375      1.810157
  C       3.225816     -1.163549     -0.061203
  C       0.806753     -2.551261     -0.089833
  C      -1.964496     -2.813459      0.102065
  C      -1.587879     -0.803256      1.998903
  C      -0.372353      1.469765      3.072407
  C       1.866031      0.293160      1.894806
  O       4.325453     -1.362832     -0.380557
  O       1.132044     -3.615816     -0.507754
  O      -2.764192     -3.620305     -0.143657
  O      -2.540876     -0.934640      2.697638
  O      -0.585399      2.249260      3.907793
  O       2.757086      0.745494      2.539016
30
Coordinates from ORCA-job Ni6_rotated E -10408.779286703466
  Ni     -1.555845      0.874912     -0.420856
  Ni      0.743073      1.605309     -0.490030
  Ni      0.038399     -0.288593     -1.808823
  C      -3.227360      1.149715      0.081745
  C      -0.806011      2.551230      0.092554
  C       1.975132      2.803333     -0.079733
  C       1.590144      0.802193     -1.997754
  C       0.379994     -1.490087     -3.058503
  C      -1.866403     -0.295102     -1.894158
  O      -4.322460      1.337112      0.421535
  O      -1.130356      3.614258      0.514181
  O       2.777728      3.601363      0.182510
  O       2.545056      0.931108     -2.693695
  O       0.595547     -2.287118     -3.875868
  O      -2.757444     -0.750258     -2.535737
  Ni      1.555846     -0.874908      0.420858
  Ni     -0.743070     -1.605311      0.490027
  Ni     -0.038404      0.288592      1.808823
  C       3.227363     -1.149705     -0.081739
  C       0.806018     -2.551228     -0.092552
  C      -1.975123     -2.803337      0.079723
  C      -1.590148     -0.802197      1.997748
  C      -0.380006      1.490080      3.058507
  C       1.866398      0.295107      1.894161
  O       4.322465     -1.337097     -0.421526
  O       1.130367     -3.614256     -0.514177
  O      -2.777714     -3.601370     -0.182526
  O      -2.545061     -0.931115      2.693688
  O      -0.595565      2.287106      3.875875
  O       2.757437      0.750267      2.535740
30
Coordinates from ORCA-job Ni6_rotated E -10408.779453059295
  Ni     -1.556789      0.873266     -0.417737
  Ni      0.745650      1.604421     -0.486261
  Ni      0.039907     -0.291976     -1.807853
  C      -3.227874      1.139036      0.097693
  C      -0.805346      2.551145      0.093951
  C       1.982897      2.795197     -0.062340
  C       1.591564      0.801637     -1.996816
  C       0.385703     -1.505536     -3.047343
  C      -1.866271     -0.295975     -1.894001
  O      -4.318552      1.316423      0.454311
  O      -1.129814      3.614490      0.510823
  O       2.787378      3.585719      0.213402
  O       2.543082      0.933264     -2.694502
  O       0.603156     -2.316569     -3.849310
  O      -2.756169     -0.747115     -2.537430
  Ni      1.556790     -0.873262      0.417739
  Ni     -0.745647     -1.604422      0.486258
  Ni     -0.039912      0.291976      1.807853
  C       3.227878     -1.139027     -0.097687
  C       0.805354     -2.551144     -0.093949
  C      -1.982889     -2.795201      0.062332
  C      -1.591568     -0.801641      1.996810
  C      -0.385715      1.505530      3.047346
  C       1.866266      0.295980      1.894003
  O       4.318557     -1.316409     -0.454303
  O       1.129824     -3.614488     -0.510819
  O      -2.787366     -3.585726     -0.213417
  O      -2.543086     -0.933270      2.694494
  O      -0.603173      2.316558      3.849317
  O       2.756163      0.747123      2.537433
30
Coordinates from ORCA-job Ni6_rotated E -10408.779529270887
  Ni     -1.557206      0.872664     -0.416488
  Ni      0.746921      1.604049     -0.484500
  Ni      0.040667     -0.293464     -1.807568
  C      -3.227377      1.134893      0.104133
  C      -0.805035      2.551163      0.093297
  C       1.985478      2.791776     -0.055354
  C       1.591536      0.801953     -1.996599
  C       0.387706     -1.511424     -3.042571
  C      -1.865706     -0.295304     -1.894562
  O      -4.315816      1.307386      0.468887
  O      -1.130383      3.616136      0.502283
  O       2.790721      3.578778      0.226801
  O       2.538122      0.938386     -2.698264
  O       0.606031     -2.329027     -3.837140
  O      -2.754520     -0.739987     -2.542052
  Ni      1.557207     -0.872661      0.416490
  Ni     -0.746918     -1.604050      0.484497
  Ni     -0.040671      0.293463      1.807568
  C       3.227380     -1.134884     -0.104127
  C       0.805042     -2.551161     -0.093295
  C      -1.985471     -2.791780      0.055346
  C      -1.591539     -0.801957      1.996593
  C      -0.387717      1.511418      3.042574
  C       1.865701      0.295309      1.894564
  O       4.315820     -1.307373     -0.468878
  O       1.130393     -3.616135     -0.502279
  O      -2.790709     -3.578784     -0.226815
  O      -2.538127     -0.938391      2.698257
  O      -0.606047      2.329017      3.837146
  O       2.754514      0.739994      2.542054
30
Coordinates from ORCA-job Ni6_rotated E -10408.779593205045
  Ni     -1.557496      0.872405     -0.415811
  Ni      0.747899      1.603830     -0.483240
  Ni      0.041261     -0.294443     -1.807558
  C      -3.226256      1.132801      0.107763
  C      -0.804867      2.551341      0.091092
  C       1.986210      2.789785     -0.051571
  C       1.590582      0.802993     -1.996875
  C       0.388415     -1.514302     -3.039625
  C      -1.864757     -0.293431     -1.895825
  O      -4.313144      1.301499      0.478721
  O      -1.131398      3.618417      0.491834
  O       2.792089      3.574298      0.235418
  O       2.532367      0.944524     -2.702960
  O       0.607479     -2.336811     -3.828837
  O      -2.752761     -0.731396     -2.547907
  Ni      1.557496     -0.872401      0.415813
  Ni     -0.747896     -1.603831      0.483237
  Ni     -0.041265      0.294442      1.807558
  C       3.226259     -1.132793     -0.107757
  C       0.804874     -2.551340     -0.091090
  C      -1.986203     -2.789789      0.051563
  C      -1.590585     -0.802997      1.996870
  C      -0.388426      1.514297      3.039628
  C       1.864752      0.293435      1.895827
  O       4.313149     -1.301487     -0.478713
  O       1.131408     -3.618416     -0.491830
  O      -2.792078     -3.574304     -0.235431
  O      -2.532371     -0.944529      2.702954
  O      -0.607494      2.336801      3.828843
  O       2.752755      0.731402      2.547910
30
Coordinates from ORCA-job Ni6_rotated E -10408.779682017816
  Ni     -1.557919      0.872145     -0.414984
  Ni      0.749343      1.603545     -0.481440
  Ni      0.042126     -0.295804     -1.807698
  C      -3.224088      1.130370      0.112422
  C      -0.804736      2.551860      0.086207
  C       1.986445      2.787270     -0.047011
  C       1.588273      0.805330     -1.997848
  C       0.388870     -1.517572     -3.035693
  C      -1.863002     -0.289404     -1.898487
  O      -4.308869      1.293251      0.492493
  O      -1.132921      3.621749      0.477141
  O       2.793464      3.568118      0.247203
  O       2.524778      0.952890     -2.709222
  O       0.609253     -2.347210     -3.817244
  O      -2.750339     -0.719425     -2.556252
  Ni      1.557919     -0.872142      0.414985
  Ni     -0.749340     -1.603546      0.481438
  Ni     -0.042130      0.295804      1.807698
  C       3.224090     -1.130362     -0.112417
  C       0.804742     -2.551859     -0.086205
  C      -1.986438     -2.787274      0.047004
  C      -1.588275     -0.805334      1.997843
  C      -0.388879      1.517567      3.035696
  C       1.862998      0.289409      1.898489
  O       4.308873     -1.293239     -0.492486
  O       1.132930     -3.621747     -0.477138
  O      -2.793454     -3.568124     -0.247214
  O      -2.524782     -0.952896      2.709215
  O      -0.609267      2.347202      3.817249
  O       2.750334      0.719432      2.556254
30
Coordinates from ORCA-job Ni6_rotated E -10408.779780582834
  Ni     -1.558492      0.871827     -0.413928
  Ni      0.751228      1.603166     -0.479116
  Ni      0.043213     -0.297595     -1.807954
  C      -3.221060      1.127273      0.118602
  C      -0.804705      2.552861      0.078517
  C       1.986495      2.784098     -0.041308
  C       1.584529      0.809047     -1.999732
  C       0.389206     -1.521737     -3.030586
  C      -1.860603     -0.283183     -1.902587
  O      -4.303168      1.282122      0.510399
  O      -1.134516      3.625383      0.461473
  O       2.795292      3.559795      0.262604
  O       2.517393      0.961344     -2.715260
  O       0.611720     -2.360447     -3.802229
  O      -2.747772     -0.706889     -2.565096
  Ni      1.558492     -0.871824      0.413930
  Ni     -0.751226     -1.603167      0.479114
  Ni     -0.043216      0.297594      1.807954
  C       3.221062     -1.127267     -0.118598
  C       0.804710     -2.552860     -0.078515
  C      -1.986489     -2.784101      0.041302
  C      -1.584531     -0.809051      1.999728
  C      -0.389214      1.521733      3.030588
  C       1.860599      0.283188      1.902589
  O       4.303172     -1.282112     -0.510392
  O       1.134523     -3.625382     -0.461469
  O      -2.795283     -3.559800     -0.262613
  O      -2.517395     -0.961349      2.715254
  O      -0.611732      2.360440      3.802233
  O       2.747767      0.706895      2.565098
30
Coordinates from ORCA-job Ni6_rotated E -10408.779841748603
  Ni     -1.558966      0.871543     -0.413064
  Ni      0.752639      1.602853     -0.477396
  Ni      0.043952     -0.299017     -1.808170
  C      -3.218847      1.124637      0.123870
  C      -0.804860      2.554011      0.071609
  C       1.986696      2.781632     -0.036775
  C       1.581105      0.812406     -2.001823
  C       0.389427     -1.525347     -3.026559
  C      -1.858899     -0.277748     -1.906172
  O      -4.299063      1.272933      0.524060
  O      -1.135288      3.627497      0.453025
  O       2.797254      3.552787      0.274791
  O       2.514186      0.965279     -2.717858
  O       0.614117     -2.370425     -3.790952
  O      -2.746548     -0.700549     -2.569612
  Ni      1.558966     -0.871541      0.413065
  Ni     -0.752637     -1.602854      0.477394
  Ni     -0.043954      0.299016      1.808170
  C       3.218849     -1.124631     -0.123867
  C       0.804865     -2.554010     -0.071608
  C      -1.986691     -2.781635      0.036770
  C      -1.581106     -0.812410      2.001820
  C      -0.389434      1.525344      3.026560
  C       1.858896      0.277752      1.906173
  O       4.299066     -1.272925     -0.524054
  O       1.135294     -3.627496     -0.453022
  O      -2.797247     -3.552792     -0.274799
  O      -2.514188     -0.965285      2.717854
  O      -0.614128      2.370420      3.790955
  O       2.746543      0.700555      2.569614
30
Coordinates from ORCA-job Ni6_rotated E -10408.779865333921
  Ni     -1.559188      0.871384     -0.412676
  Ni      0.753094      1.602721     -0.476881
  Ni      0.044085     -0.299595     -1.808259
  C      -3.218296      1.123321      0.126410
  C      -0.805149      2.554869      0.068109
  C       1.987075      2.780683     -0.034901
  C       1.579331      0.814088     -2.003295
  C       0.389528     -1.527207     -3.025010
  C      -1.858548     -0.275185     -1.907864
  O      -4.298149      1.268930      0.528724
  O      -1.135308      3.628077      0.451587
  O       2.798813      3.549469      0.279644
  O       2.514223      0.965304     -2.717899
  O       0.615653     -2.373757     -3.787435
  O      -2.746705     -0.700055     -2.569923
  Ni      1.559189     -0.871381      0.412677
  Ni     -0.753092     -1.602722      0.476879
  Ni     -0.044088      0.299595      1.808258
  C       3.218298     -1.123316     -0.126407
  C       0.805153     -2.554868     -0.068108
  C      -1.987071     -2.780686      0.034896
  C      -1.579332     -0.814092      2.003293
  C      -0.389535      1.527204      3.025011
  C       1.858545      0.275189      1.907865
  O       4.298152     -1.268923     -0.528719
  O       1.135313     -3.628076     -0.451584
  O      -2.798806     -3.549473     -0.279651
  O      -2.514224     -0.965309      2.717896
  O      -0.615663      2.373752      3.787438
  O       2.746700      0.700061      2.569924
30
Coordinates from ORCA-job Ni6_rotated E -10408.779879345717
  Ni     -1.559323      0.871271     -0.412478
  Ni      0.753151      1.602662     -0.476896
  Ni      0.043939     -0.299846     -1.808304
  C      -3.218435      1.122505      0.127868
  C      -0.805549      2.555697      0.065723
  C       1.987549      2.780310     -0.034129
  C       1.578091      0.815173     -2.004667
  C       0.389550     -1.528349     -3.024492
  C      -1.858799     -0.273641     -1.908867
  O      -4.298642      1.266907      0.529589
  O      -1.135290      3.628676      0.450543
  O       2.800390      3.547406      0.281610
  O       2.514095      0.965174     -2.718285
  O       0.616961     -2.374226     -3.787248
  O      -2.747230     -0.700057     -2.569781
  Ni      1.559323     -0.871269      0.412479
  Ni     -0.753150     -1.602662      0.476894
  Ni     -0.043941      0.299845      1.808303
  C       3.218437     -1.122500     -0.127865
  C       0.805553     -2.555696     -0.065722
  C      -1.987545     -2.780312      0.034124
  C      -1.578092     -0.815176      2.004665
  C      -0.389557      1.528347      3.024493
  C       1.858796      0.273644      1.908867
  O       4.298644     -1.266900     -0.529583
  O       1.135295     -3.628675     -0.450541
  O      -2.800384     -3.547409     -0.281617
  O      -2.514096     -0.965180      2.718283
  O      -0.616971      2.374221      3.787250
  O       2.747226      0.700062      2.569783
30
Coordinates from ORCA-job Ni6_rotated E -10408.779897958355
  Ni     -1.559523      0.871094     -0.412214
  Ni      0.753092      1.602582     -0.477159
  Ni      0.043556     -0.300162     -1.808365
  C      -3.218886      1.121268      0.129885
  C      -0.806313      2.557132      0.061871
  C       1.988379      2.779779     -0.033257
  C       1.576070      0.816833     -2.007058
  C       0.389525     -1.529924     -3.024010
  C      -1.859473     -0.271284     -1.910347
  O      -4.299986      1.264040      0.529595
  O      -1.135609      3.630469      0.446007
  O       2.803192      3.544071      0.284020
  O       2.512068      0.966651     -2.720747
  O       0.619159     -2.373855     -3.788174
  O      -2.748017     -0.697962     -2.570951
  Ni      1.559523     -0.871092      0.412215
  Ni     -0.753091     -1.602583      0.477157
  Ni     -0.043559      0.300162      1.808364
  C       3.218887     -1.121264     -0.129882
  C       0.806316     -2.557131     -0.061870
  C      -1.988375     -2.779781      0.033253
  C      -1.576071     -0.816836      2.007056
  C      -0.389531      1.529921      3.024011
  C       1.859470      0.271288      1.910348
  O       4.299989     -1.264034     -0.529589
  O       1.135614     -3.630468     -0.446004
  O      -2.803186     -3.544073     -0.284027
  O      -2.512069     -0.966656      2.720745
  O      -0.619169      2.373851      3.788176
  O       2.748013      0.697967      2.570952
30
Coordinates from ORCA-job Ni6_rotated E -10408.779917471456
  Ni     -1.559793      0.870839     -0.411857
  Ni      0.752966      1.602462     -0.477617
  Ni      0.042970     -0.300597     -1.808425
  C      -3.219466      1.119499      0.132461
  C      -0.807419      2.559101      0.056422
  C       1.989533      2.778820     -0.032126
  C       1.573180      0.819083     -2.010433
  C       0.389470     -1.531854     -3.023397
  C      -1.860463     -0.268013     -1.912323
  O      -4.301822      1.259902      0.529434
  O      -1.136563      3.633884      0.436089
  O       2.807196      3.539033      0.287474
  O       2.507033      0.970899     -2.726314
  O       0.622223     -2.373139     -3.789471
  O      -2.748813     -0.692209     -2.574556
  Ni      1.559793     -0.870837      0.411858
  Ni     -0.752965     -1.602462      0.477616
  Ni     -0.042973      0.300597      1.808425
  C       3.219468     -1.119495     -0.132458
  C       0.807422     -2.559100     -0.056421
  C      -1.989530     -2.778822      0.032122
  C      -1.573180     -0.819086      2.010432
  C      -0.389476      1.531852      3.023398
  C       1.860461      0.268016      1.912323
  O       4.301824     -1.259897     -0.529429
  O       1.136567     -3.633883     -0.436088
  O      -2.807192     -3.539035     -0.287481
  O      -2.507033     -0.970904      2.726312
  O      -0.622231      2.373135      3.789473
  O       2.748810      0.692213      2.574557
30
Coordinates from ORCA-job Ni6_rotated E -10408.779929387831
  Ni     -1.560002      0.870605     -0.411557
  Ni      0.752841      1.602347     -0.478051
  Ni      0.042466     -0.300965     -1.808426
  C      -3.219820      1.117936      0.134288
  C      -0.808314      2.560555      0.052053
  C       1.990481      2.777647     -0.031168
  C       1.570798      0.820773     -2.013109
  C       0.389461     -1.533115     -3.022860
  C      -1.861251     -0.265454     -1.913752
  O      -4.303058      1.256210      0.529584
  O      -1.137781      3.637214      0.425465
  O       2.810488      3.534397      0.290686
  O       2.501320      0.975918     -2.732354
  O       0.624643     -2.372737     -3.790035
  O      -2.749176     -0.685486     -2.578917
  Ni      1.560002     -0.870603      0.411557
  Ni     -0.752840     -1.602348      0.478049
  Ni     -0.042468      0.300966      1.808426
  C       3.219821     -1.117933     -0.134284
  C       0.808317     -2.560555     -0.052052
  C      -1.990478     -2.777648      0.031164
  C      -1.570798     -0.820775      2.013108
  C      -0.389466      1.533113      3.022861
  C       1.861249      0.265457      1.913752
  O       4.303060     -1.256206     -0.529579
  O       1.137786     -3.637213     -0.425464
  O      -2.810485     -3.534398     -0.290693
  O      -2.501319     -0.975922      2.732353
  O      -0.624651      2.372733      3.790036
  O       2.749173      0.685490      2.578918
30
Coordinates from ORCA-job Ni6_rotated E -10408.779934042206
  Ni     -1.560082      0.870465     -0.411411
  Ni      0.752737      1.602282     -0.478331
  Ni      0.042204     -0.301130     -1.808357
  C      -3.219906      1.117094      0.134751
  C      -0.808687      2.560981      0.050389
  C       1.990954      2.776686     -0.030704
  C       1.569789      0.821282     -2.014154
  C       0.389531     -1.533326     -3.022605
  C      -1.861600     -0.264583     -1.914091
  O      -4.303373      1.254304      0.529873
  O      -1.138579      3.638740      0.419981
  O       2.811973      3.531843      0.292447
  O       2.498180      0.978615     -2.735567
  O       0.625602     -2.372739     -3.789789
  O      -2.749207     -0.681905     -2.581264
  Ni      1.560082     -0.870464      0.411412
  Ni     -0.752736     -1.602283      0.478330
  Ni     -0.042206      0.301130      1.808356
  C       3.219907     -1.117092     -0.134748
  C       0.808689     -2.560981     -0.050388
  C      -1.990952     -2.776686      0.030700
  C      -1.569789     -0.821284      2.014153
  C      -0.389536      1.533324      3.022606
  C       1.861598      0.264585      1.914091
  O       4.303376     -1.254300     -0.529867
  O       1.138583     -3.638739     -0.419980
  O      -2.811970     -3.531843     -0.292454
  O      -2.498179     -0.978619      2.735566
  O      -0.625610      2.372736      3.789791
  O       2.749204      0.681909      2.581264
30
Coordinates from ORCA-job Ni6_rotated E -10408.779936334086
  Ni     -1.560112      0.870340     -0.411318
  Ni      0.752596      1.602233     -0.478615
  Ni      0.041992     -0.301212     -1.808238
  C      -3.219972      1.116430      0.134700
  C      -0.808886      2.561019      0.049778
  C       1.991339      2.775718     -0.030398
  C       1.569282      0.821313     -2.014638
  C       0.389675     -1.533169     -3.022462
  C      -1.861855     -0.264418     -1.913961
  O      -4.303460      1.252996      0.530058
  O      -1.139095      3.639279      0.417590
  O       2.812926      3.529910      0.293673
  O       2.496648      0.979684     -2.737130
  O       0.626084     -2.372806     -3.789340
  O      -2.749282     -0.680513     -2.582126
  Ni      1.560112     -0.870338      0.411318
  Ni     -0.752595     -1.602234      0.478614
  Ni     -0.041993      0.301212      1.808237
  C       3.219973     -1.116427     -0.134696
  C       0.808889     -2.561018     -0.049778
  C      -1.991337     -2.775718      0.030394
  C      -1.569282     -0.821316      2.014637
  C      -0.389680      1.533168      3.022462
  C       1.861853      0.264421      1.913961
  O       4.303462     -1.252993     -0.530053
  O       1.139098     -3.639279     -0.417589
  O      -2.812923     -3.529910     -0.293679
  O      -2.496648     -0.979688      2.737129
  O      -0.626091      2.372803      3.789342
  O       2.749280      0.680517      2.582127
