16
Coordinates from ORCA-job Pt3_znt E -2817.162958688818
  Pt     -5.435140     12.017070      8.688200
  Pt     -5.040660      9.325230      8.612770
  Pt     -3.313310     10.913570      9.986170
  O      -7.159060     14.413360      7.927760
  O      -7.435840     10.393300      7.007070
  O      -5.927420      6.553530      7.704840
  O      -2.661560      7.908210      9.954610
  O      -3.528870     13.978600     10.100750
  O      -0.842300     11.230390     11.743680
  C      -6.493720     13.520320      8.215820
  C      -6.509410     10.508980      7.715140
  C      -5.592290      7.599430      8.047170
  C      -3.312040      8.845320      9.686960
  C      -3.900780     12.912550      9.787860
  C      -1.774510     11.110860     11.080330
  Zn     -8.161930     15.840930      7.473780
16
Coordinates from ORCA-job Pt3_znt E -2817.169876486497
  Pt     -5.394383     12.022825      8.622266
  Pt     -5.044834      9.339316      8.613493
  Pt     -3.329962     10.921352      9.978976
  O      -7.162640     14.375520      7.989199
  O      -7.390942     10.390571      6.950829
  O      -5.921510      6.572337      7.711759
  O      -2.727246      7.914286     10.032782
  O      -3.495491     13.977416     10.042425
  O      -0.865641     11.236499     11.729982
  C      -6.464813     13.475597      8.232895
  C      -6.465982     10.509821      7.661301
  C      -5.588879      7.619921      8.052305
  C      -3.354034      8.856592      9.726545
  C      -3.867567     12.910684      9.729357
  C      -1.798119     11.117387     11.066406
  Zn     -8.216796     15.831524      7.592387
16
Coordinates from ORCA-job Pt3_znt E -2817.183379483711
  Pt     -5.456783     12.039307      8.654343
  Pt     -5.040747      9.308756      8.614148
  Pt     -3.317437     10.909938      9.988126
  O      -7.168780     14.427310      7.970604
  O      -7.423888     10.344317      6.972644
  O      -5.893996      6.532197      7.705653
  O      -2.679026      7.895320     10.002796
  O      -3.515283     13.976116     10.080701
  O      -0.841004     11.232510     11.727730
  C      -6.475666     13.484063      8.231986
  C      -6.500477     10.469869      7.688055
  C      -5.569754      7.583138      8.047275
  C      -3.324182      8.834555      9.715947
  C      -3.885270     12.904096      9.773059
  C      -1.776923     11.110855     11.067611
  Zn     -8.219625     16.019302      7.492232
16
Coordinates from ORCA-job Pt3_znt E -2817.194851030647
  Pt     -5.438919     12.016561      8.634650
  Pt     -5.020811      9.312146      8.619271
  Pt     -3.328516     10.895265      9.970955
  O      -7.193525     14.448838      7.998999
  O      -7.379598     10.316542      6.971425
  O      -5.878416      6.528144      7.728533
  O      -2.690539      7.897345     10.022099
  O      -3.513855     13.937701     10.051878
  O      -0.861729     11.226277     11.726823
  C      -6.492831     13.494138      8.230102
  C      -6.457440     10.441378      7.684364
  C      -5.552841      7.580243      8.061229
  C      -3.328098      8.835090      9.721704
  C      -3.872878     12.863256      9.748926
  C      -1.791580     11.102307     11.060619
  Zn     -8.287264     16.176419      7.501332
16
Coordinates from ORCA-job Pt3_znt E -2817.206509287541
  Pt     -5.445039     12.003524      8.638158
  Pt     -5.022875      9.293260      8.613922
  Pt     -3.319746     10.896790      9.975926
  O      -7.183030     14.430933      8.020543
  O      -7.388936     10.310870      6.971718
  O      -5.875621      6.503440      7.726051
  O      -2.672179      7.885835     10.019837
  O      -3.535285     13.944659     10.047331
  O      -0.852841     11.234796     11.735160
  C      -6.500111     13.487418      8.233618
  C      -6.467242     10.423378      7.682554
  C      -5.552631      7.554549      8.055341
  C      -3.312280      8.819310      9.722350
  C      -3.876415     12.864804      9.754626
  C      -1.779148     11.109037     11.068925
  Zn     -8.305462     16.309047      7.466850
16
Coordinates from ORCA-job Pt3_znt E -2817.214399187320
  Pt     -5.447777     11.984565      8.654131
  Pt     -5.016081      9.287655      8.614940
  Pt     -3.319232     10.891330      9.972772
  O      -7.166492     14.399044      8.036903
  O      -7.402749     10.313151      6.983026
  O      -5.856373      6.495751      7.738576
  O      -2.656193      7.888927     10.000885
  O      -3.558632     13.950216     10.053922
  O      -0.856503     11.217291     11.732473
  C      -6.504251     13.477547      8.240120
  C      -6.478312     10.417758      7.692152
  C      -5.536222      7.548797      8.064146
  C      -3.301890      8.819509      9.710783
  C      -3.888492     12.865668      9.764725
  C      -1.781968     11.094678     11.064688
  Zn     -8.317674     16.419765      7.408670
16
Coordinates from ORCA-job Pt3_znt E -2817.219167264185
  Pt     -5.437967     11.963237      8.658145
  Pt     -5.015481      9.273474      8.608808
  Pt     -3.308880     10.892158      9.975038
  O      -7.168119     14.381667      8.057515
  O      -7.408411     10.311899      6.982767
  O      -5.854350      6.473860      7.745141
  O      -2.643213      7.884704      9.994559
  O      -3.568859     13.955039     10.052547
  O      -0.849412     11.211187     11.745743
  C      -6.507200     13.466809      8.247947
  C      -6.481330     10.410311      7.690611
  C      -5.533910      7.529468      8.065662
  C      -3.291671      8.814983      9.704897
  C      -3.889615     12.866401      9.765503
  C      -1.773084     11.090781     11.073430
  Zn     -8.357340     16.545670      7.364598
16
Coordinates from ORCA-job Pt3_znt E -2817.222642403190
  Pt     -5.446850     11.944210      8.682727
  Pt     -5.007898      9.262804      8.613688
  Pt     -3.305736     10.881395      9.976803
  O      -7.169682     14.373925      8.066676
  O      -7.420613     10.306512      7.004673
  O      -5.833733      6.463902      7.748460
  O      -2.620042      7.884393      9.970460
  O      -3.590109     13.949321     10.069632
  O      -0.844521     11.196173     11.739910
  C      -6.510057     13.453933      8.259243
  C      -6.492865     10.405837      7.712383
  C      -5.516601      7.520772      8.070160
  C      -3.278816      8.812103      9.693525
  C      -3.908747     12.859682      9.781830
  C      -1.769964     11.076535     11.068952
  Zn     -8.372607     16.680151      7.273789
16
Coordinates from ORCA-job Pt3_znt E -2817.224969575500
  Pt     -5.423775     11.934823      8.661662
  Pt     -5.003883      9.251110      8.608332
  Pt     -3.295107     10.879042      9.977506
  O      -7.185918     14.354871      8.099250
  O      -7.406195     10.296695      6.986831
  O      -5.840920      6.448301      7.758115
  O      -2.626631      7.877793      9.988899
  O      -3.572877     13.946723     10.056601
  O      -0.842089     11.193273     11.755817
  C      -6.509577     13.438837      8.269968
  C      -6.476977     10.404520      7.691754
  C      -5.519460      7.506445      8.073761
  C      -3.278323      8.807429      9.698645
  C      -3.894971     12.859958      9.761029
  C      -1.764140     11.074403     11.078939
  Zn     -8.447998     16.797427      7.265800
16
Coordinates from ORCA-job Pt3_znt E -2817.226526715137
  Pt     -5.451282     11.918293      8.720833
  Pt     -5.003642      9.244943      8.621292
  Pt     -3.295751     10.869072      9.988135
  O      -7.180691     14.342482      8.096466
  O      -7.428462     10.282710      7.039305
  O      -5.823142      6.453368      7.729587
  O      -2.591837      7.880382      9.941407
  O      -3.593633     13.927950     10.108765
  O      -0.822355     11.192310     11.731061
  C      -6.512305     13.424836      8.290924
  C      -6.503331     10.399699      7.747566
  C      -5.508524      7.508800      8.060763
  C      -3.264093      8.804916      9.683651
  C      -3.927006     12.845857      9.810038
  C      -1.753213     11.071214     11.066759
  Zn     -8.429572     16.904819      7.096359
16
Coordinates from ORCA-job Pt3_znt E -2817.227444924246
  Pt     -5.415658     11.925449      8.670812
  Pt     -4.983037      9.236947      8.613285
  Pt     -3.278863     10.855048      9.977969
  O      -7.212175     14.324081      8.136738
  O      -7.396453     10.273853      7.002972
  O      -5.846672      6.449345      7.762540
  O      -2.603688      7.860172      9.979603
  O      -3.554223     13.921950     10.081184
  O      -0.839504     11.185153     11.762211
  C      -6.518292     13.421008      8.297981
  C      -6.465627     10.406923      7.701180
  C      -5.515620      7.504296      8.078315
  C      -3.255768      8.789630      9.691186
  C      -3.893361     12.847233      9.762336
  C      -1.758316     11.062362     11.081858
  Zn     -8.551584     17.008200      7.132739
16
Coordinates from ORCA-job Pt3_znt E -2817.228104523148
  Pt     -5.440396     11.912140      8.729566
  Pt     -4.998287      9.227175      8.640376
  Pt     -3.286704     10.847202     10.007523
  O      -7.215080     14.315054      8.139576
  O      -7.415489     10.256307      7.049237
  O      -5.822291      6.452284      7.692254
  O      -2.585805      7.854305      9.960177
  O      -3.560957     13.903326     10.132618
  O      -0.789043     11.200791     11.714053
  C      -6.526996     13.413047      8.324708
  C      -6.495459     10.397207      7.760280
  C      -5.508080      7.501436      8.043672
  C      -3.257563      8.779115      9.704504
  C      -3.919785     12.833103      9.820008
  C      -1.729046     11.071286     11.064057
  Zn     -8.537860     17.107870      6.950302
16
Coordinates from ORCA-job Pt3_znt E -2817.228335470337
  Pt     -5.440415     11.900961      8.750830
  Pt     -4.967920      9.232242      8.599209
  Pt     -3.256067     10.849224      9.969696
  O      -7.221582     14.295601      8.157843
  O      -7.424282     10.245460      7.078001
  O      -5.880524      6.447615      7.763410
  O      -2.530259      7.861377      9.878532
  O      -3.567699     13.888037     10.171522
  O      -0.833168     11.194612     11.784496
  C      -6.528423     13.397989      8.347194
  C      -6.485739     10.395306      7.762427
  C      -5.534445      7.500211      8.072139
  C      -3.201619      8.786704      9.624369
  C      -3.913959     12.824112      9.825139
  C      -1.744954     11.069595     11.094547
  Zn     -8.557786     17.182603      6.853557
16
Coordinates from ORCA-job Pt3_znt E -2817.228695888295
  Pt     -5.429418     11.899101      8.740732
  Pt     -4.979040      9.222887      8.637831
  Pt     -3.269245     10.831007      9.997847
  O      -7.241923     14.280193      8.186009
  O      -7.407649     10.241539      7.068106
  O      -5.839530      6.460461      7.706598
  O      -2.557894      7.842431      9.933094
  O      -3.546358     13.880761     10.154457
  O      -0.799344     11.197393     11.732524
  C      -6.537158     13.389813      8.363281
  C      -6.481894     10.392715      7.769742
  C      -5.512248      7.507020      8.052807
  C      -3.231976      8.767174      9.685181
  C      -3.908584     12.816998      9.823315
  C      -1.730894     11.063568     11.071708
  Zn     -8.615685     17.278589      6.809678
16
Coordinates from ORCA-job Pt3_znt E -2817.228699013935
  Pt     -5.455485     11.894944      8.785931
  Pt     -4.980200      9.218547      8.644145
  Pt     -3.287747     10.822416     10.033337
  O      -7.241384     14.284816      8.181333
  O      -7.421065     10.241878      7.089209
  O      -5.827130      6.455458      7.690195
  O      -2.548781      7.842094      9.920588
  O      -3.589804     13.870483     10.231084
  O      -0.746946     11.201991     11.663865
  C      -6.545895     13.391209      8.379737
  C      -6.494118     10.390095      7.789953
  C      -5.504997      7.500812      8.045213
  C      -3.223273      8.766803      9.673991
  C      -3.943885     12.808060      9.887364
  C      -1.704819     11.062459     11.042907
  Zn     -8.573311     17.319585      6.674059
16
Coordinates from ORCA-job Pt3_znt E -2817.228613421749
  Pt     -5.462523     11.894905      8.800814
  Pt     -4.991430      9.204559      8.666976
  Pt     -3.252825     10.827441      9.989010
  O      -7.253783     14.283830      8.201625
  O      -7.474956     10.227021      7.165988
  O      -5.792871      6.440340      7.649154
  O      -2.517489      7.845809      9.874917
  O      -3.562309     13.880108     10.186821
  O      -0.791161     11.180855     11.753713
  C      -6.557438     13.389938      8.401129
  C      -6.532987     10.373236      7.846830
  C      -5.487860      7.482650      8.028502
  C      -3.201484      8.767595      9.644057
  C      -3.916967     12.814298      9.855177
  C      -1.717150     11.049544     11.084054
  Zn     -8.575607     17.409522      6.584143
16
Coordinates from ORCA-job Pt3_znt E -2817.228621208774
  Pt     -5.418914     11.897083      8.732581
  Pt     -4.951380      9.215854      8.598641
  Pt     -3.248288     10.828752      9.982941
  O      -7.269200     14.261890      8.229387
  O      -7.389856     10.247318      7.039223
  O      -5.878904      6.428292      7.785170
  O      -2.513746      7.846333      9.873353
  O      -3.554320     13.880086     10.167773
  O      -0.808758     11.178620     11.775972
  C      -6.552014     13.377479      8.393301
  C      -6.465242     10.384580      7.744944
  C      -5.526137      7.480253      8.088275
  C      -3.209175      8.764063      9.659266
  C      -3.901394     12.812853      9.832728
  C      -1.726797     11.047978     11.095471
  Zn     -8.674716     17.420215      6.733885
16
Coordinates from ORCA-job Pt3_znt E -2817.228647285603
  Pt     -5.444081     11.880852      8.774621
  Pt     -4.985084      9.222934      8.642718
  Pt     -3.279675     10.826410     10.023216
  O      -7.247995     14.262498      8.204225
  O      -7.419675     10.245296      7.092425
  O      -5.821825      6.467949      7.692228
  O      -2.551777      7.841698      9.925985
  O      -3.586854     13.869826     10.208249
  O      -0.761873     11.197394     11.680315
  C      -6.548417     13.370480      8.391954
  C      -6.483695     10.383326      7.782455
  C      -5.502344      7.513247      8.048256
  C      -3.227895      8.766970      9.682334
  C      -3.923415     12.802623      9.861897
  C      -1.712659     11.059021     11.048840
  Zn     -8.591575     17.361126      6.673191
16
Coordinates from ORCA-job Pt3_znt E -2817.228883472890
  Pt     -5.451460     11.891000      8.781699
  Pt     -4.978556      9.213385      8.641612
  Pt     -3.266426     10.827157     10.001862
  O      -7.253726     14.275707      8.208281
  O      -7.437392     10.240751      7.110522
  O      -5.816189      6.441085      7.702064
  O      -2.527560      7.846656      9.889270
  O      -3.579074     13.877765     10.194408
  O      -0.782982     11.182001     11.724518
  C      -6.555481     13.382111      8.398734
  C      -6.506411     10.375842      7.808315
  C      -5.496674      7.488477      8.053295
  C      -3.204490      8.770720      9.645484
  C      -3.927019     12.807834      9.868850
  C      -1.718872     11.048902     11.069694
  Zn     -8.586527     17.402255      6.634302
16
Coordinates from ORCA-job Pt3_znt E -2817.228663939565
  Pt     -5.461035     11.890873      8.795557
  Pt     -4.984127      9.208112      8.649523
  Pt     -3.267202     10.826484     10.006381
  O      -7.258820     14.278880      8.215016
  O      -7.452701     10.240958      7.127574
  O      -5.797356      6.433979      7.675035
  O      -2.525532      7.847667      9.885407
  O      -3.588876     13.880022     10.204436
  O      -0.766119     11.182840     11.711935
  C      -6.563084     13.383745      8.409778
  C      -6.504201     10.375896      7.801474
  C      -5.487122      7.479930      8.039367
  C      -3.231420      8.761405      9.690025
  C      -3.915871     12.811891      9.852532
  C      -1.707279     11.048415     11.064666
  Zn     -8.578093     17.420553      6.604203
16
Coordinates from ORCA-job Pt3_znt E -2817.228930432490
  Pt     -5.448848     11.888483      8.775540
  Pt     -4.977937      9.214930      8.635582
  Pt     -3.265265     10.828299     10.002878
  O      -7.257749     14.271228      8.214823
  O      -7.431296     10.243871      7.099080
  O      -5.819941      6.440920      7.708940
  O      -2.529570      7.846602      9.892756
  O      -3.581479     13.878593     10.192543
  O      -0.778755     11.182223     11.723252
  C      -6.558246     13.377763      8.401471
  C      -6.496698     10.376118      7.792406
  C      -5.498712      7.489210      8.055717
  C      -3.214439      8.768351      9.662005
  C      -3.919574     12.807951      9.858952
  C      -1.715525     11.049025     11.069687
  Zn     -8.594806     17.408084      6.647279
16
Coordinates from ORCA-job Pt3_znt E -2817.228937173796
  Pt     -5.452658     11.888677      8.781877
  Pt     -4.979113      9.213829      8.639069
  Pt     -3.268331     10.828113     10.004295
  O      -7.256192     14.273729      8.214214
  O      -7.436073     10.243385      7.106422
  O      -5.812984      6.439812      7.703384
  O      -2.528943      7.847199      9.891128
  O      -3.585693     13.878689     10.195608
  O      -0.777730     11.181788     11.717077
  C      -6.559282     13.378979      8.404118
  C      -6.500482     10.374626      7.798695
  C      -5.494845      7.487883      8.053678
  C      -3.213196      8.768981      9.658927
  C      -3.924088     12.807275      9.864910
  C      -1.716355     11.048526     11.066287
  Zn     -8.582873     17.410160      6.633221
16
Coordinates from ORCA-job Pt3_znt E -2817.228940507207
  Pt     -5.455232     11.887969      8.783768
  Pt     -4.979899      9.213922      8.639523
  Pt     -3.268642     10.828290     10.004077
  O      -7.256661     14.274391      8.215103
  O      -7.437841     10.243528      7.107852
  O      -5.809303      6.439255      7.701894
  O      -2.527949      7.848067      9.889609
  O      -3.588247     13.879045     10.196083
  O      -0.777718     11.180537     11.717400
  C      -6.561479     13.378517      8.406197
  C      -6.504604     10.372698      7.803670
  C      -5.492926      7.487544      8.053079
  C      -3.212271      8.769762      9.657301
  C      -3.923398     12.807164      9.863554
  C      -1.716403     11.047653     11.066627
  Zn     -8.576269     17.413308      6.627175
16
Coordinates from ORCA-job Pt3_znt E -2817.228947674077
  Pt     -5.459293     11.886520      8.785918
  Pt     -4.980735      9.214968      8.638486
  Pt     -3.268517     10.828933     10.003958
  O      -7.259011     14.274428      8.217951
  O      -7.439242     10.244611      7.107312
  O      -5.806677      6.438145      7.705209
  O      -2.526315      7.849550      9.886456
  O      -3.592815     13.880059     10.196432
  O      -0.774538     11.177823     11.715508
  C      -6.566621     13.376700      8.410857
  C      -6.503998     10.370986      7.800890
  C      -5.491822      7.487263      8.055137
  C      -3.211649      8.770945      9.655874
  C      -3.926681     12.806002      9.869544
  C      -1.714210     11.045921     11.065960
  Zn     -8.566715     17.418794      6.617418
16
Coordinates from ORCA-job Pt3_znt E -2817.228950732462
  Pt     -5.458586     11.886862      8.786617
  Pt     -4.980409      9.214122      8.638335
  Pt     -3.269721     10.829333     10.004339
  O      -7.258275     14.274811      8.218887
  O      -7.439434     10.243967      7.108268
  O      -5.806211      6.437343      7.704121
  O      -2.526176      7.849438      9.886330
  O      -3.592896     13.879940     10.196802
  O      -0.775872     11.179042     11.714075
  C      -6.566108     13.377036      8.412162
  C      -6.503845     10.370807      7.801342
  C      -5.491560      7.486413      8.054381
  C      -3.212421      8.770439      9.656790
  C      -3.926465     12.806246      9.868545
  C      -1.715850     11.046987     11.065076
  Zn     -8.565012     17.418864      6.616839
16
Coordinates from ORCA-job Pt3_znt E -2817.228954092235
  Pt     -5.460723     11.886644      8.789871
  Pt     -4.980874      9.213924      8.639538
  Pt     -3.270608     10.829090     10.005155
  O      -7.258018     14.275563      8.218896
  O      -7.442087     10.243264      7.112451
  O      -5.804045      6.437573      7.701490
  O      -2.524403      7.850052      9.883412
  O      -3.595215     13.879406     10.200249
  O      -0.774876     11.179176     11.711838
  C      -6.567453     13.377088      8.414471
  C      -6.506069     10.370523      7.804876
  C      -5.490640      7.486512      8.053245
  C      -3.211802      8.770626      9.655701
  C      -3.928293     12.805954      9.870702
  C      -1.715725     11.047151     11.064109
  Zn     -8.558009     17.419104      6.606907
16
Coordinates from ORCA-job Pt3_znt E -2817.228964902271
  Pt     -5.467936     11.885536      8.800243
  Pt     -4.982364      9.213693      8.641985
  Pt     -3.272717     10.829052     10.007030
  O      -7.257881     14.277771      8.220089
  O      -7.450631     10.240878      7.125016
  O      -5.798200      6.438074      7.695040
  O      -2.517873      7.852727      9.872417
  O      -3.602947     13.877930     10.211437
  O      -0.771858     11.179372     11.705763
  C      -6.573359     13.376549      8.423860
  C      -6.513128     10.369396      7.815212
  C      -5.488612      7.486914      8.050423
  C      -3.209043      8.771902      9.650671
  C      -3.934747     12.805021      9.878827
  C      -1.715234     11.047925     11.061625
  Zn     -8.532311     17.418910      6.573273
16
Coordinates from ORCA-job Pt3_znt E -2817.228973009571
  Pt     -5.474810     11.884382      8.809684
  Pt     -4.983628      9.214090      8.643289
  Pt     -3.274060     10.829351     10.008346
  O      -7.257910     14.279751      8.220911
  O      -7.458463     10.239144      7.136045
  O      -5.794128      6.438999      7.690335
  O      -2.511755      7.855601      9.861640
  O      -3.610664     13.876714     10.222651
  O      -0.768504     11.179513     11.700415
  C      -6.579573     13.375806      8.433077
  C      -6.519496     10.368875      7.824013
  C      -5.487574      7.487844      8.048344
  C      -3.206099      8.773614      9.645087
  C      -3.941566     12.804264      9.887635
  C      -1.714170     11.048736     11.059484
  Zn     -8.506438     17.414964      6.541955
16
Coordinates from ORCA-job Pt3_znt E -2817.228975517890
  Pt     -5.477481     11.883927      8.813358
  Pt     -4.984161      9.214662      8.643147
  Pt     -3.274055     10.829845     10.008474
  O      -7.257850     14.280596      8.220755
  O      -7.462000     10.238908      7.140583
  O      -5.793305      6.439820      7.688622
  O      -2.509653      7.856945      9.857492
  O      -3.614069     13.876396     10.227989
  O      -0.766762     11.179705     11.698334
  C      -6.582305     13.375509      8.437022
  C      -6.522156     10.369060      7.827263
  C      -5.487603      7.488637      8.047484
  C      -3.204841      8.774687      9.642435
  C      -3.944600     12.804139      9.891976
  C      -1.713280     11.049172     11.058575
  Zn     -8.494721     17.409643      6.529400
16
Coordinates from ORCA-job Pt3_znt E -2817.228976010334
  Pt     -5.477704     11.883982      8.814029
  Pt     -4.984163      9.215091      8.642697
  Pt     -3.273646     10.830081     10.008286
  O      -7.257727     14.280714      8.220165
  O      -7.463118     10.239421      7.142037
  O      -5.793802      6.440535      7.687904
  O      -2.509803      7.857096      9.857273
  O      -3.615079     13.876355     10.230196
  O      -0.765849     11.180002     11.697583
  C      -6.582676     13.375566      8.437776
  C      -6.522708     10.369514      7.827945
  C      -5.487814      7.489190      8.047028
  C      -3.204684      8.775012      9.641907
  C      -3.945284     12.804208      9.893528
  C      -1.712551     11.049279     11.058111
  Zn     -8.492232     17.405602      6.526445
16
Coordinates from ORCA-job Pt3_znt E -2817.228976384712
  Pt     -5.477452     11.884203      8.814532
  Pt     -4.984046      9.215497      8.642302
  Pt     -3.273061     10.830189     10.008082
  O      -7.257586     14.280618      8.219382
  O      -7.464370     10.240081      7.143985
  O      -5.794425      6.441546      7.686500
  O      -2.510484      7.856872      9.857948
  O      -3.615835     13.876176     10.232807
  O      -0.764773     11.180521     11.696626
  C      -6.582497     13.375751      8.438080
  C      -6.523154     10.370011      7.828810
  C      -5.487886      7.489856      8.046185
  C      -3.204737      8.775101      9.641852
  C      -3.945482     12.804221      9.895001
  C      -1.711610     11.049325     11.057438
  Zn     -8.491442     17.401682      6.523380
