16
Coordinates from ORCA-job Pt3_zntop E -2817.278904994734
  Pt     -5.435140     12.017070      8.688200
  Pt     -5.040660      9.325230      8.612770
  Pt     -3.313310     10.913570      9.986170
  O      -7.159060     14.413360      7.927760
  O      -7.435840     10.393300      7.007070
  O      -5.927420      6.553530      7.704840
  O      -2.661560      7.908210      9.954610
  O      -3.528870     13.978600     10.100750
  O      -0.842300     11.230390     11.743680
  C      -6.493720     13.520320      8.215820
  C      -6.509410     10.508980      7.715140
  C      -5.592290      7.599430      8.047170
  C      -3.312040      8.845320      9.686960
  C      -3.900780     12.912550      9.787860
  C      -1.774510     11.110860     11.080330
  Zn     -5.932180     10.699700     10.989630
16
Coordinates from ORCA-job Pt3_zntop E -2817.281215723598
  Pt     -5.433370     12.013229      8.686967
  Pt     -5.036530      9.331744      8.611581
  Pt     -3.316988     10.913606      9.979662
  O      -7.154241     14.397173      7.953148
  O      -7.440144     10.390932      7.008154
  O      -5.929654      6.575304      7.735261
  O      -2.662260      7.908415      9.955260
  O      -3.531509     13.983864     10.100315
  O      -0.878917     11.220852     11.749619
  C      -6.486598     13.500252      8.233334
  C      -6.492678     10.511196      7.692008
  C      -5.589722      7.624702      8.069831
  C      -3.298237      8.851445      9.662383
  C      -3.883944     12.916675      9.758590
  C      -1.807386     11.103644     11.076568
  Zn     -5.916913     10.687388     10.976077
16
Coordinates from ORCA-job Pt3_zntop E -2817.282637708340
  Pt     -5.437149     12.017192      8.684629
  Pt     -5.038094      9.327984      8.608275
  Pt     -3.313448     10.916696      9.980896
  O      -7.172686     14.411292      7.977733
  O      -7.441926     10.391029      6.995728
  O      -5.950746      6.557161      7.757747
  O      -2.652189      7.906105      9.947514
  O      -3.525523     13.993961     10.088452
  O      -0.887737     11.219394     11.787094
  C      -6.502575     13.510667      8.247131
  C      -6.480630     10.513651      7.662222
  C      -5.604941      7.609570      8.082983
  C      -3.278139      8.852212      9.637131
  C      -3.863514     12.926694      9.727909
  C      -1.810296     11.104180     11.102558
  Zn     -5.899497     10.672632     10.960759
16
Coordinates from ORCA-job Pt3_zntop E -2817.283734925300
  Pt     -5.440043     12.011927      8.690469
  Pt     -5.041088      9.333458      8.615231
  Pt     -3.323534     10.918359      9.981598
  O      -7.177690     14.412052      8.009916
  O      -7.420890     10.394561      6.972703
  O      -5.964586      6.559186      7.787364
  O      -2.638020      7.917443      9.919861
  O      -3.510041     13.994992     10.049680
  O      -0.916226     11.215691     11.813205
  C      -6.509154     13.505866      8.269167
  C      -6.464221     10.516215      7.647818
  C      -5.615514      7.613733      8.106086
  C      -3.271105      8.862753      9.617338
  C      -3.852457     12.924407      9.700158
  C      -1.833699     11.102567     11.119628
  Zn     -5.880823     10.647211     10.948538
16
Coordinates from ORCA-job Pt3_zntop E -2817.284670991718
  Pt     -5.448315     12.013108      8.695736
  Pt     -5.048902      9.330605      8.622842
  Pt     -3.328045     10.920571      9.989529
  O      -7.184861     14.416629      8.040584
  O      -7.402558     10.398289      6.938835
  O      -5.979883      6.557523      7.814528
  O      -2.615570      7.922750      9.889557
  O      -3.487599     14.003658     10.007400
  O      -0.940341     11.213966     11.840958
  C      -6.519293     13.505773      8.289859
  C      -6.456849     10.517656      7.630230
  C      -5.628833      7.612688      8.127928
  C      -3.260126      8.865505      9.602047
  C      -3.840640     12.929591      9.678750
  C      -1.852290     11.102575     11.140317
  Zn     -5.864984     10.619533     10.939659
16
Coordinates from ORCA-job Pt3_zntop E -2817.285540006148
  Pt     -5.458482     12.011858      8.706849
  Pt     -5.061041      9.329147      8.638592
  Pt     -3.338291     10.921458     10.002665
  O      -7.185783     14.423718      8.058828
  O      -7.376277     10.403726      6.910405
  O      -5.990460      6.555116      7.829649
  O      -2.597792      7.935282      9.857065
  O      -3.468330     14.002506      9.964602
  O      -0.953690     11.216670     11.858368
  C      -6.527582     13.508170      8.304533
  C      -6.446266     10.520034      7.621411
  C      -5.641758      7.609206      8.144470
  C      -3.255587      8.873377      9.589502
  C      -3.834406     12.926623      9.661335
  C      -1.864134     11.105278     11.157977
  Zn     -5.859210     10.588252     10.942509
16
Coordinates from ORCA-job Pt3_zntop E -2817.286319937787
  Pt     -5.469954     12.011514      8.720652
  Pt     -5.074010      9.326473      8.655531
  Pt     -3.349049     10.921801     10.018766
  O      -7.186850     14.430687      8.072257
  O      -7.346859     10.409194      6.875907
  O      -6.000299      6.551654      7.843366
  O      -2.575703      7.946703      9.818394
  O      -3.445695     14.003254      9.920636
  O      -0.962842     11.219436     11.872366
  C      -6.535095     13.510481      8.317860
  C      -6.439047     10.521803      7.615449
  C      -5.653956      7.605778      8.160719
  C      -3.252485      8.879098      9.580490
  C      -3.830719     12.925218      9.650569
  C      -1.874429     11.107419     11.173598
  Zn     -5.862099     10.559907     10.952198
16
Coordinates from ORCA-job Pt3_zntop E -2817.287026390274
  Pt     -5.482451     12.010973      8.737227
  Pt     -5.088360      9.323424      8.674776
  Pt     -3.361144     10.921536     10.037874
  O      -7.186574     14.436629      8.079942
  O      -7.312822     10.415135      6.841839
  O      -6.009421      6.549049      7.855100
  O      -2.553145      7.960731      9.775159
  O      -3.422940     13.999795      9.877125
  O      -0.968129     11.223563     11.882184
  C      -6.541566     13.512570      8.329289
  C      -6.430246     10.524046      7.611755
  C      -5.666021      7.602984      8.176501
  C      -3.249872      8.886208      9.570588
  C      -3.828990     12.921174      9.642669
  C      -1.882721     11.109818     11.187530
  Zn     -5.874688     10.532785     10.969203
16
Coordinates from ORCA-job Pt3_zntop E -2817.287624359235
  Pt     -5.493244     12.009929      8.753073
  Pt     -5.100260      9.322109      8.692906
  Pt     -3.372972     10.920612     10.054538
  O      -7.190995     14.438857      8.091288
  O      -7.274637     10.421771      6.804878
  O      -6.020827      6.546997      7.873571
  O      -2.528351      7.976412      9.726296
  O      -3.398488     13.995655      9.832353
  O      -0.977416     11.224348     11.895071
  C      -6.549454     13.512528      8.343392
  C      -6.419433     10.527054      7.606316
  C      -5.678240      7.601476      8.195917
  C      -3.246215      8.893729      9.558917
  C      -3.826241     12.917636      9.633629
  C      -1.893716     11.109353     11.202048
  Zn     -5.888600     10.511955     10.984568
16
Coordinates from ORCA-job Pt3_zntop E -2817.288105459455
  Pt     -5.503779     12.008967      8.769105
  Pt     -5.112437      9.320530      8.710780
  Pt     -3.383974     10.919661     10.071386
  O      -7.198251     14.438794      8.103215
  O      -7.230869     10.428434      6.766132
  O      -6.035515      6.545278      7.895778
  O      -2.502613      7.994394      9.671702
  O      -3.373336     13.987898      9.787357
  O      -0.987031     11.225336     11.910060
  C      -6.558755     13.511918      8.358411
  C      -6.406330     10.529995      7.599725
  C      -5.692556      7.599942      8.217101
  C      -3.241112      8.901775      9.543879
  C      -3.823718     12.912726      9.625742
  C      -1.904024     11.108967     11.218165
  Zn     -5.904790     10.495804     11.000221
16
Coordinates from ORCA-job Pt3_zntop E -2817.288453972543
  Pt     -5.513176     12.007683      8.784285
  Pt     -5.122346      9.319706      8.727129
  Pt     -3.393895     10.917674     10.086165
  O      -7.210764     14.436059      8.119421
  O      -7.182318     10.436408      6.725193
  O      -6.052602      6.542830      7.923378
  O      -2.476273      8.014801      9.612610
  O      -3.347868     13.979192      9.741373
  O      -0.999947     11.223359     11.928216
  C      -6.570520     13.509927      8.375963
  C      -6.391134     10.533583      7.591303
  C      -5.707312      7.598169      8.240510
  C      -3.236667      8.909418      9.529602
  C      -3.819946     12.908159      9.615989
  C      -1.916103     11.106313     11.235135
  Zn     -5.918219     10.487140     11.012486
16
Coordinates from ORCA-job Pt3_zntop E -2817.288653431414
  Pt     -5.523493     12.006502      8.800459
  Pt     -5.133247      9.318563      8.742975
  Pt     -3.403466     10.915826     10.101641
  O      -7.225901     14.431280      8.136107
  O      -7.126562     10.444267      6.682492
  O      -6.070987      6.540991      7.951424
  O      -2.453125      8.036106      9.553950
  O      -3.321321     13.966136      9.692925
  O      -1.011004     11.221723     11.946761
  C      -6.583885     13.507002      8.394344
  C      -6.375385     10.536124      7.583964
  C      -5.723010      7.596890      8.263258
  C      -3.231083      8.918298      9.510387
  C      -3.817955     12.902119      9.609817
  C      -1.926246     11.104272     11.252661
  Zn     -5.932420     10.484321     11.025593
16
Coordinates from ORCA-job Pt3_zntop E -2817.288658525225
  Pt     -5.530233     12.003923      8.813093
  Pt     -5.140547      9.314492      8.754228
  Pt     -3.409651     10.912309     10.114460
  O      -7.236361     14.426834      8.148092
  O      -7.085627     10.453446      6.654112
  O      -6.087805      6.536461      7.973522
  O      -2.429037      8.061171      9.493113
  O      -3.307022     13.956897      9.662113
  O      -1.020950     11.221002     11.963206
  C      -6.593001     13.503967      8.407675
  C      -6.359999     10.539795      7.576663
  C      -5.736111      7.592603      8.280003
  C      -3.233535      8.920034      9.510776
  C      -3.812456     12.895881      9.595805
  C      -1.934594     11.102473     11.267367
  Zn     -5.942162     10.489132     11.034531
16
Coordinates from ORCA-job Pt3_zntop E -2817.288710105524
  Pt     -5.531986     12.005807      8.813702
  Pt     -5.140227      9.315717      8.753573
  Pt     -3.409788     10.912753     10.114044
  O      -7.243756     14.426463      8.154144
  O      -7.078059     10.453668      6.648473
  O      -6.086136      6.536404      7.974897
  O      -2.434375      8.056377      9.504830
  O      -3.299155     13.953934      9.649629
  O      -1.022451     11.217651     11.964503
  C      -6.597894     13.504568      8.411652
  C      -6.360815     10.539158      7.577806
  C      -5.734620      7.593190      8.279964
  C      -3.229267      8.924501      9.499588
  C      -3.814661     12.896655      9.601098
  C      -1.935624     11.100627     11.267562
  Zn     -5.940278     10.492947     11.033295
16
Coordinates from ORCA-job Pt3_zntop E -2817.288722081246
  Pt     -5.530138     12.005685      8.810286
  Pt     -5.138811      9.315376      8.750032
  Pt     -3.407310     10.913231     10.110868
  O      -7.240365     14.426382      8.150469
  O      -7.090949     10.451853      6.657602
  O      -6.082953      6.537209      7.968485
  O      -2.438822      8.051150      9.516817
  O      -3.306155     13.956859      9.661895
  O      -1.018995     11.218634     11.961673
  C      -6.594797     13.504261      8.407441
  C      -6.363710     10.538309      7.578959
  C      -5.731805      7.593790      8.274309
  C      -3.230461      8.922139      9.503403
  C      -3.814941     12.897087      9.601566
  C      -1.932063     11.101762     11.264635
  Zn     -5.936817     10.496692     11.030319
16
Coordinates from ORCA-job Pt3_zntop E -2817.288730408797
  Pt     -5.530163     12.005502      8.810516
  Pt     -5.138376      9.314722      8.749425
  Pt     -3.407278     10.912671     10.110885
  O      -7.242161     14.425771      8.152346
  O      -7.091708     10.452382      6.658217
  O      -6.082733      6.536220      7.968941
  O      -2.438196      8.051547      9.516360
  O      -3.305933     13.956542      9.661393
  O      -1.020711     11.217258     11.963129
  C      -6.595603     13.504001      8.408191
  C      -6.362605     10.538329      7.578187
  C      -5.730991      7.593020      8.273411
  C      -3.230587      8.921917      9.503685
  C      -3.813886     12.896460      9.599732
  C      -1.932984     11.100968     11.264968
  Zn     -5.935175     10.503111     11.029374
16
Coordinates from ORCA-job Pt3_zntop E -2817.288736640779
  Pt     -5.531623     12.005323      8.811498
  Pt     -5.138764      9.313584      8.748933
  Pt     -3.407044     10.911765     10.111316
  O      -7.247341     14.423749      8.156986
  O      -7.085605     10.454366      6.653493
  O      -6.084511      6.534733      7.972301
  O      -2.436630      8.052835      9.513044
  O      -3.304542     13.955369      9.658026
  O      -1.022570     11.214694     11.967019
  C      -6.598576     13.502901      8.410684
  C      -6.361526     10.538321      7.577643
  C      -5.731142      7.591956      8.273533
  C      -3.230219      8.922216      9.502140
  C      -3.812396     12.895228      9.596531
  C      -1.933375     11.099445     11.266708
  Zn     -5.933226     10.513933     11.028906
16
Coordinates from ORCA-job Pt3_zntop E -2817.288736427343
  Pt     -5.531733     12.005471      8.811912
  Pt     -5.138442      9.313851      8.749117
  Pt     -3.406801     10.911718     10.112006
  O      -7.249347     14.422905      8.158383
  O      -7.086741     10.453965      6.654509
  O      -6.085020      6.534939      7.973523
  O      -2.435737      8.053470      9.510021
  O      -3.302256     13.954285      9.653014
  O      -1.024026     11.213362     11.969890
  C      -6.599523     13.502576      8.411303
  C      -6.358299     10.538589      7.575170
  C      -5.730784      7.592209      8.273589
  C      -3.229999      8.922266      9.501231
  C      -3.813233     12.895296      9.597961
  C      -1.933917     11.098702     11.268297
  Zn     -5.933231     10.516819     11.028832
16
Coordinates from ORCA-job Pt3_zntop E -2817.288738766731
  Pt     -5.531446     12.005526      8.811461
  Pt     -5.138371      9.313955      8.748996
  Pt     -3.407243     10.911877     10.111522
  O      -7.247972     14.423890      8.157686
  O      -7.086175     10.453844      6.653947
  O      -6.084862      6.534783      7.973519
  O      -2.435969      8.053245      9.511465
  O      -3.303321     13.954831      9.655920
  O      -1.024008     11.213983     11.968195
  C      -6.598704     13.503215      8.410733
  C      -6.360291     10.538304      7.576625
  C      -5.730773      7.592013      8.273836
  C      -3.229650      8.922514      9.501123
  C      -3.812694     12.895267      9.597322
  C      -1.934220     11.099049     11.267112
  Zn     -5.933391     10.514124     11.029298
16
Coordinates from ORCA-job Pt3_zntop E -2817.288739746029
  Pt     -5.531393     12.005482      8.811132
  Pt     -5.138186      9.314123      8.748629
  Pt     -3.407029     10.911969     10.111132
  O      -7.248414     14.423658      8.158453
  O      -7.085709     10.453901      6.653305
  O      -6.085540      6.534947      7.974419
  O      -2.435904      8.053207      9.511366
  O      -3.303417     13.955058      9.655823
  O      -1.024360     11.213791     11.968914
  C      -6.598775     13.503050      8.410833
  C      -6.360375     10.538293      7.576431
  C      -5.730811      7.592180      8.273982
  C      -3.229503      8.922548      9.500959
  C      -3.812526     12.895365      9.596922
  C      -1.934154     11.098978     11.267244
  Zn     -5.932994     10.513870     11.029215
