16
Coordinates from ORCA-job Ni3_zn_double E -6983.394624196850
  Ni      1.662463     -1.232242      0.459467
  Ni     -0.579439     -2.052090      0.465018
  Ni      0.171796     -0.512492      2.178075
  C       3.346672     -1.421256     -0.078367
  C       0.716988     -2.059383     -0.966641
  C      -1.878460     -2.953070     -0.328891
  C      -1.601906     -1.109658      1.803799
  C      -0.096398      0.417562      3.661570
  C       1.786992      0.323842      1.543286
  O       4.442258     -1.576264     -0.408577
  O       0.843685     -2.413044     -2.081435
  O      -2.740458     -3.448309     -0.918755
  O      -2.708046     -1.025838      2.197640
  O      -0.281476      1.056206      4.606119
  O       2.451552      1.279002      1.715110
  Zn      1.074289     -2.916704      2.219852
16
Coordinates from ORCA-job Ni3_zn_double E -6983.394850086414
  Ni      1.663582     -1.233389      0.459884
  Ni     -0.579420     -2.051496      0.464734
  Ni      0.171435     -0.512175      2.177509
  C       3.347100     -1.421162     -0.079496
  C       0.716172     -2.058817     -0.967019
  C      -1.875323     -2.963163     -0.321922
  C      -1.603764     -1.102945      1.797653
  C      -0.094935      0.411351      3.665153
  C       1.787698      0.322893      1.544819
  O       4.442530     -1.575441     -0.410517
  O       0.837070     -2.398146     -2.086894
  O      -2.735266     -3.469821     -0.904442
  O      -2.713489     -0.998155      2.175495
  O      -0.278924      1.045504      4.612978
  O       2.453008      1.276966      1.718602
  Zn      1.073037     -2.915744      2.220732
16
Coordinates from ORCA-job Ni3_zn_double E -6983.395381128341
  Ni      1.666897     -1.235174      0.460074
  Ni     -0.580300     -2.045826      0.461594
  Ni      0.169743     -0.509321      2.174361
  C       3.348233     -1.420947     -0.083205
  C       0.712092     -2.051733     -0.970767
  C      -1.867207     -2.987476     -0.303939
  C      -1.610850     -1.075811      1.773819
  C      -0.091485      0.393442      3.674788
  C       1.790169      0.321033      1.549792
  O       4.443239     -1.574087     -0.416214
  O       0.823645     -2.369618     -2.097785
  O      -2.720618     -3.529041     -0.863008
  O      -2.725011     -0.932622      2.123457
  O      -0.272425      1.013006      4.632895
  O       2.457972      1.271745      1.730048
  Zn      1.066416     -2.911310      2.221361
16
Coordinates from ORCA-job Ni3_zn_double E -6983.395912189648
  Ni      1.671206     -1.236479      0.459594
  Ni     -0.581507     -2.037005      0.456913
  Ni      0.167607     -0.505510      2.169936
  C       3.349797     -1.421275     -0.087729
  C       0.705896     -2.039817     -0.976786
  C      -1.858341     -3.011144     -0.284229
  C      -1.619454     -1.040022      1.742216
  C      -0.088574      0.372335      3.684964
  C       1.793026      0.319356      1.556027
  O       4.444395     -1.573768     -0.422854
  O       0.811285     -2.345515     -2.107633
  O      -2.703255     -3.594172     -0.813258
  O      -2.735396     -0.866081      2.070465
  O      -0.266577      0.973774      4.655213
  O       2.463123      1.266889      1.743449
  Zn      1.057281     -2.905306      2.220979
16
Coordinates from ORCA-job Ni3_zn_double E -6983.396355722733
  Ni      1.676213     -1.237695      0.458722
  Ni     -0.582558     -2.026952      0.452019
  Ni      0.165487     -0.502169      2.165261
  C       3.351736     -1.422242     -0.092785
  C       0.698366     -2.025281     -0.983690
  C      -1.849284     -3.032982     -0.263463
  C      -1.627710     -1.001185      1.707269
  C      -0.086919      0.349852      3.694722
  C       1.795846      0.317364      1.563102
  O       4.445934     -1.574172     -0.430355
  O       0.799622     -2.323768     -2.116697
  O      -2.684235     -3.659100     -0.758530
  O      -2.744319     -0.800581      2.017205
  O      -0.262649      0.931571      4.677439
  O       2.467659      1.262531      1.756894
  Zn      1.047320     -2.898931      2.220159
16
Coordinates from ORCA-job Ni3_zn_double E -6983.396662688788
  Ni      1.681175     -1.239172      0.457822
  Ni     -0.583596     -2.017002      0.447584
  Ni      0.163376     -0.499919      2.160995
  C       3.353557     -1.423397     -0.098336
  C       0.690474     -2.010600     -0.990231
  C      -1.840030     -3.054424     -0.241136
  C      -1.634611     -0.963365      1.672582
  C      -0.086675      0.327065      3.703992
  C       1.798509      0.314414      1.570762
  O       4.447221     -1.574300     -0.438945
  O       0.787958     -2.300690     -2.125610
  O      -2.663668     -3.721501     -0.700954
  O      -2.751357     -0.734221      1.961216
  O      -0.260664      0.888745      4.698684
  O       2.471695      1.257715      1.769510
  Zn      1.037147     -2.893087      2.219335
16
Coordinates from ORCA-job Ni3_zn_double E -6983.396755140870
  Ni      1.685665     -1.240204      0.456747
  Ni     -0.585625     -2.005273      0.440951
  Ni      0.161008     -0.497116      2.156469
  C       3.355254     -1.424695     -0.103468
  C       0.683607     -1.994548     -0.997631
  C      -1.832162     -3.074238     -0.222608
  C      -1.641758     -0.925134      1.638099
  C      -0.086713      0.304788      3.713525
  C       1.802260      0.310577      1.579113
  O       4.448378     -1.574609     -0.446944
  O       0.777187     -2.272576     -2.136575
  O      -2.641544     -3.795710     -0.633848
  O      -2.760378     -0.662487      1.901426
  O      -0.257331      0.844435      4.721834
  O       2.477883      1.250954      1.783574
  Zn      1.024779     -2.887903      2.216607
16
Coordinates from ORCA-job Ni3_zn_double E -6983.396847107038
  Ni      1.687992     -1.241502      0.456447
  Ni     -0.586914     -1.999588      0.438384
  Ni      0.159482     -0.496012      2.154138
  C       3.356040     -1.426118     -0.106371
  C       0.679804     -1.987010     -1.000396
  C      -1.828170     -3.084159     -0.210984
  C      -1.644094     -0.906235      1.620474
  C      -0.089002      0.295073      3.716722
  C       1.803638      0.308073      1.582916
  O       4.448720     -1.574756     -0.452041
  O       0.772920     -2.261044     -2.140072
  O      -2.629092     -3.820004     -0.604096
  O      -2.759851     -0.636693      1.877067
  O      -0.258342      0.823310      4.730729
  O       2.479837      1.247834      1.787815
  Zn      1.017542     -2.884909      2.216539
16
Coordinates from ORCA-job Ni3_zn_double E -6983.396938845500
  Ni      1.689201     -1.243051      0.456712
  Ni     -0.588330     -1.997014      0.437911
  Ni      0.158532     -0.496336      2.153794
  C       3.355964     -1.425918     -0.110142
  C       0.677547     -1.983089     -1.000402
  C      -1.824017     -3.098536     -0.196723
  C      -1.643865     -0.895775      1.610689
  C      -0.091778      0.288475      3.719955
  C       1.804994      0.304441      1.586153
  O       4.447957     -1.571562     -0.459297
  O       0.769674     -2.248302     -2.142283
  O      -2.620985     -3.835877     -0.585931
  O      -2.759493     -0.609509      1.850981
  O      -0.260314      0.808427      4.737756
  O       2.482884      1.243136      1.790384
  Zn      1.012541     -2.883249      2.217711
16
Coordinates from ORCA-job Ni3_zn_double E -6983.396996087649
  Ni      1.689389     -1.243588      0.456533
  Ni     -0.590188     -1.994508      0.436910
  Ni      0.157683     -0.495977      2.153473
  C       3.355468     -1.425543     -0.113223
  C       0.676595     -1.980258     -1.000087
  C      -1.821211     -3.109936     -0.185645
  C      -1.642470     -0.889940      1.605515
  C      -0.095113      0.286340      3.721303
  C       1.806659      0.301191      1.588336
  O       4.446857     -1.569307     -0.464834
  O       0.768245     -2.236236     -2.144145
  O      -2.617236     -3.848311     -0.574929
  O      -2.756643     -0.593952      1.834605
  O      -0.263617      0.801151      4.741495
  O       2.488438      1.236878      1.793803
  Zn      1.007653     -2.881743      2.218159
16
Coordinates from ORCA-job Ni3_zn_double E -6983.397021790829
  Ni      1.688776     -1.243480      0.456300
  Ni     -0.591461     -1.994038      0.436791
  Ni      0.157541     -0.496287      2.154112
  C       3.354605     -1.424068     -0.115856
  C       0.676713     -1.979413     -0.999134
  C      -1.820332     -3.115296     -0.180359
  C      -1.640123     -0.890044      1.605923
  C      -0.097909      0.287628      3.721311
  C       1.808118      0.298626      1.589671
  O       4.445504     -1.565952     -0.469579
  O       0.769628     -2.232618     -2.143432
  O      -2.617812     -3.851520     -0.573745
  O      -2.754104     -0.588534      1.828370
  O      -0.267119      0.801170      4.742136
  O       2.493216      1.231662      1.796370
  Zn      1.005270     -2.881577      2.218393
16
Coordinates from ORCA-job Ni3_zn_double E -6983.397035970984
  Ni      1.688339     -1.243376      0.456101
  Ni     -0.592080     -1.994165      0.436855
  Ni      0.157678     -0.496792      2.154700
  C       3.353975     -1.422655     -0.117913
  C       0.676873     -1.978988     -0.998567
  C      -1.820287     -3.116223     -0.178745
  C      -1.638217     -0.889988      1.606051
  C      -0.100152      0.289191      3.720686
  C       1.809479      0.296642      1.590961
  O       4.444508     -1.562897     -0.473337
  O       0.771331     -2.233054     -2.142512
  O      -2.618604     -3.852314     -0.573161
  O      -2.752309     -0.587532      1.827057
  O      -0.270271      0.802250      4.741755
  O       2.496525      1.228027      1.798716
  Zn      1.003721     -2.881867      2.218624
16
Coordinates from ORCA-job Ni3_zn_double E -6983.397056431364
  Ni      1.687881     -1.243554      0.455870
  Ni     -0.592792     -1.994865      0.437213
  Ni      0.158082     -0.498016      2.155723
  C       3.352965     -1.419933     -0.121893
  C       0.676992     -1.978471     -0.997704
  C      -1.820258     -3.116303     -0.176796
  C      -1.635022     -0.888047      1.604442
  C      -0.104276      0.291351      3.719413
  C       1.812252      0.292803      1.593892
  O       4.442771     -1.556659     -0.480775
  O       0.773960     -2.235188     -2.141001
  O      -2.618955     -3.853999     -0.569898
  O      -2.749571     -0.585014      1.824731
  O      -0.276182      0.802861      4.741143
  O       2.501876      1.221902      1.803396
  Zn      1.000786     -2.882608      2.219514
16
Coordinates from ORCA-job Ni3_zn_double E -6983.397070020753
  Ni      1.687857     -1.244107      0.455812
  Ni     -0.593078     -1.995778      0.437653
  Ni      0.158446     -0.499088      2.156347
  C       3.352261     -1.417623     -0.125403
  C       0.676943     -1.978451     -0.997132
  C      -1.820002     -3.116181     -0.175203
  C      -1.632855     -0.884245      1.600949
  C      -0.107638      0.292136      3.718474
  C       1.814831      0.289457      1.596812
  O       4.441390     -1.550991     -0.487459
  O       0.775016     -2.236560     -2.140258
  O      -2.617838     -3.856899     -0.564462
  O      -2.747723     -0.580663      1.821238
  O      -0.280956      0.801267      4.741187
  O       2.505928      1.217128      1.807846
  Zn      0.997928     -2.883141      2.220870
16
Coordinates from ORCA-job Ni3_zn_double E -6983.397078426227
  Ni      1.688068     -1.244795      0.455889
  Ni     -0.593041     -1.996882      0.438142
  Ni      0.158689     -0.499722      2.156546
  C       3.351810     -1.415815     -0.128061
  C       0.676906     -1.979168     -0.996750
  C      -1.819574     -3.116688     -0.173801
  C      -1.631835     -0.879978      1.596915
  C      -0.109809      0.291867      3.718045
  C       1.816890      0.287096      1.599154
  O       4.440401     -1.546427     -0.492610
  O       0.774511     -2.236772     -2.140162
  O      -2.616035     -3.860377     -0.558901
  O      -2.746729     -0.575035      1.816781
  O      -0.283916      0.798310      4.741892
  O       2.508677      1.213936      1.811627
  Zn      0.995497     -2.883291      2.222562
16
Coordinates from ORCA-job Ni3_zn_double E -6983.397084013390
  Ni      1.688255     -1.245359      0.456012
  Ni     -0.592853     -1.998209      0.438685
  Ni      0.158836     -0.499865      2.156480
  C       3.351432     -1.414212     -0.130029
  C       0.677022     -1.980565     -0.996410
  C      -1.819155     -3.117959     -0.172585
  C      -1.631562     -0.876377      1.593472
  C      -0.110992      0.291262      3.718001
  C       1.818506      0.285655      1.600823
  O       4.439612     -1.542627     -0.496482
  O       0.773170     -2.236550     -2.140277
  O      -2.614472     -3.863628     -0.554822
  O      -2.746176     -0.569151      1.812034
  O      -0.285355      0.795134      4.742991
  O       2.510755      1.211785      1.814893
  Zn      0.993488     -2.883074      2.224483
16
Coordinates from ORCA-job Ni3_zn_double E -6983.397090683165
  Ni      1.688306     -1.245818      0.456161
  Ni     -0.592556     -2.000344      0.439539
  Ni      0.158998     -0.499582      2.156281
  C       3.350806     -1.411837     -0.132358
  C       0.677391     -1.983044     -0.995882
  C      -1.818746     -3.120347     -0.171147
  C      -1.631536     -0.872653      1.589898
  C      -0.111929      0.290607      3.718189
  C       1.820488      0.284384      1.602569
  O       4.438495     -1.537537     -0.501105
  O       0.771195     -2.236912     -2.140239
  O      -2.613173     -3.867297     -0.551556
  O      -2.745501     -0.561422      1.805611
  O      -0.286235      0.791186      4.744731
  O       2.513537      1.209309      1.819199
  Zn      0.990970     -2.882435      2.227379
16
Coordinates from ORCA-job Ni3_zn_double E -6983.397097558374
  Ni      1.688069     -1.245872      0.456259
  Ni     -0.592253     -2.003016      0.440618
  Ni      0.159177     -0.498783      2.156038
  C       3.349893     -1.408778     -0.134805
  C       0.677971     -1.986116     -0.995208
  C      -1.818557     -3.123420     -0.169813
  C      -1.631606     -0.869847      1.587197
  C      -0.112484      0.290248      3.718592
  C       1.822598      0.283520      1.604123
  O       4.437062     -1.531559     -0.506001
  O       0.769432     -2.238992     -2.139736
  O      -2.612830     -3.870298     -0.550472
  O      -2.744646     -0.553502      1.798711
  O      -0.286375      0.787321      4.746891
  O       2.516879      1.206731      1.823990
  Zn      0.988179     -2.881376      2.230886
16
Coordinates from ORCA-job Ni3_zn_double E -6983.397102796126
  Ni      1.687602     -1.245384      0.456242
  Ni     -0.592084     -2.005182      0.441525
  Ni      0.159321     -0.497702      2.155858
  C       3.348986     -1.406053     -0.136552
  C       0.678475     -1.988437     -0.994639
  C      -1.818713     -3.125867     -0.169086
  C      -1.631654     -0.868905      1.586261
  C      -0.112494      0.290270      3.719086
  C       1.824096      0.283352      1.604998
  O       4.435771     -1.526687     -0.509575
  O       0.768922     -2.242815     -2.138798
  O      -2.613624     -3.871360     -0.551960
  O      -2.743914     -0.548474      1.793875
  O      -0.285695      0.784741      4.748804
  O       2.519612      1.204982      1.827458
  Zn      0.985903     -2.880219      2.233772
16
Coordinates from ORCA-job Ni3_zn_double E -6983.397105612356
  Ni      1.687192     -1.244668      0.456146
  Ni     -0.592060     -2.006103      0.441956
  Ni      0.159388     -0.496781      2.155747
  C       3.348443     -1.404590     -0.137186
  C       0.678670     -1.989272     -0.994353
  C      -1.819036     -3.126832     -0.169002
  C      -1.631655     -0.869241      1.586492
  C      -0.112124      0.290330      3.719506
  C       1.824591      0.283724      1.605141
  O       4.435067     -1.524366     -0.510987
  O       0.769615     -2.246660     -2.137877
  O      -2.614736     -3.870760     -0.554245
  O      -2.743634     -0.547274      1.792110
  O      -0.284604      0.783530      4.750012
  O       2.520814      1.204574      1.828569
  Zn      0.984578     -2.879352      2.235240
16
Coordinates from ORCA-job Ni3_zn_double E -6983.397107311363
  Ni      1.686935     -1.243967      0.456036
  Ni     -0.592072     -2.006291      0.442103
  Ni      0.159410     -0.496012      2.155614
  C       3.348183     -1.403945     -0.137236
  C       0.678681     -1.989401     -0.994185
  C      -1.819339     -3.126939     -0.169131
  C      -1.631650     -0.869651      1.586700
  C      -0.111616      0.290145      3.719872
  C       1.824533      0.284295      1.604972
  O       4.434753     -1.523544     -0.511282
  O       0.770709     -2.249801     -2.137110
  O      -2.615591     -3.869703     -0.556025
  O      -2.743701     -0.547782      1.791706
  O      -0.283362      0.782552      4.750912
  O       2.521044      1.204957      1.828314
  Zn      0.983594     -2.878654      2.236011
16
Coordinates from ORCA-job Ni3_zn_double E -6983.397108718709
  Ni      1.686768     -1.243190      0.455917
  Ni     -0.592057     -2.006228      0.442169
  Ni      0.159419     -0.495110      2.155361
  C       3.348035     -1.403552     -0.137073
  C       0.678667     -1.989530     -0.993937
  C      -1.819626     -3.126730     -0.169273
  C      -1.631668     -0.869724      1.586424
  C      -0.110937      0.289592      3.720308
  C       1.824200      0.285080      1.604642
  O       4.434571     -1.523220     -0.511221
  O       0.771997     -2.252761     -2.136305
  O      -2.616249     -3.868530     -0.557414
  O      -2.744008     -0.548825      1.791472
  O      -0.281701      0.780953      4.752018
  O       2.520823      1.205842      1.827333
  Zn      0.982276     -2.877808      2.236848
16
Coordinates from ORCA-job Ni3_zn_double E -6983.397110334911
  Ni      1.686694     -1.242335      0.455794
  Ni     -0.591977     -2.006084      0.442212
  Ni      0.159427     -0.493974      2.154926
  C       3.347971     -1.403254     -0.136803
  C       0.678736     -1.990058     -0.993491
  C      -1.819874     -3.126400     -0.169349
  C      -1.631722     -0.869290      1.585456
  C      -0.110063      0.288598      3.720840
  C       1.823629      0.286132      1.604140
  O       4.434470     -1.523177     -0.510994
  O       0.773304     -2.255335     -2.135437
  O      -2.616669     -3.867442     -0.558359
  O      -2.744513     -0.549978      1.790998
  O      -0.279498      0.778380      4.753506
  O       2.520276      1.207177      1.825768
  Zn      0.980319     -2.876700      2.238064
16
Coordinates from ORCA-job Ni3_zn_double E -6983.397111759109
  Ni      1.686734     -1.241645      0.455699
  Ni     -0.591837     -2.005971      0.442231
  Ni      0.159442     -0.492900      2.154408
  C       3.348010     -1.403076     -0.136542
  C       0.678951     -1.991059     -0.992919
  C      -1.820001     -3.126108     -0.169337
  C      -1.631785     -0.868546      1.584118
  C      -0.109236      0.287455      3.721310
  C       1.822951      0.287223      1.603543
  O       4.434480     -1.523441     -0.510678
  O       0.774174     -2.256562     -2.134761
  O      -2.616743     -3.866815     -0.558654
  O      -2.745009     -0.550770      1.790336
  O      -0.277331      0.775504      4.754994
  O       2.519576      1.208589      1.824084
  Zn      0.978134     -2.875619      2.239438
16
Coordinates from ORCA-job Ni3_zn_double E -6983.397112699885
  Ni      1.686842     -1.241344      0.455651
  Ni     -0.591708     -2.005910      0.442198
  Ni      0.159467     -0.492323      2.154042
  C       3.348121     -1.403051     -0.136402
  C       0.679218     -1.992034     -0.992506
  C      -1.819981     -3.125935     -0.169300
  C      -1.631806     -0.868044      1.583215
  C      -0.108783      0.286698      3.721535
  C       1.822412      0.287970      1.603055
  O       4.434594     -1.523944     -0.510367
  O       0.774387     -2.256219     -2.134526
  O      -2.616550     -3.866786     -0.558416
  O      -2.745215     -0.550960      1.789884
  O      -0.276073      0.773625      4.755870
  O       2.518999      1.209537      1.822959
  Zn      0.976590     -2.875022      2.240378
16
Coordinates from ORCA-job Ni3_zn_double E -6983.397113140853
  Ni      1.686951     -1.241300      0.455625
  Ni     -0.591630     -2.005830      0.442112
  Ni      0.159500     -0.492202      2.153884
  C       3.348246     -1.403117     -0.136362
  C       0.679410     -1.992578     -0.992369
  C      -1.819895     -3.125795     -0.169308
  C      -1.631775     -0.867991      1.582995
  C      -0.108663      0.286391      3.721572
  C       1.822058      0.288373      1.602739
  O       4.434744     -1.524521     -0.510101
  O       0.774322     -2.255370     -2.134592
  O      -2.616307     -3.866997     -0.558060
  O      -2.745146     -0.550840      1.789811
  O      -0.275667      0.772881      4.756164
  O       2.518577      1.210047      1.822394
  Zn      0.975787     -2.874892      2.240766
