16
Coordinates from ORCA-job Ni3_zn_single E -6983.275336497066
  Ni      1.631030     -1.121300      0.737720
  Ni     -0.640330     -1.843170      0.808840
  Ni      0.054820      0.036340      2.101310
  C       3.256770     -1.306910      0.121180
  C       0.800420     -2.548490     -0.189010
  C      -1.898010     -2.938650      0.284020
  C      -1.664220     -0.738430      1.954540
  C      -0.319200      1.310790      3.238240
  C       1.895500      0.392700      1.837960
  O       4.343310     -1.429110     -0.296940
  O       1.052950     -3.417130     -0.974760
  O      -2.739680     -3.669870     -0.072570
  O      -2.782790     -0.605820      2.362860
  O      -0.572530      2.159940      4.003100
  O       2.752660      1.155830      2.182060
  Zn     -4.149370     -4.958580     -0.668000
16
Coordinates from ORCA-job Ni3_zn_single E -6983.283175368537
  Ni      1.633874     -1.120150      0.738561
  Ni     -0.639058     -1.843171      0.810672
  Ni      0.056664      0.038161      2.103613
  C       3.263471     -1.306486      0.121148
  C       0.804002     -2.550036     -0.187771
  C      -1.898652     -2.937461      0.282997
  C      -1.663781     -0.737757      1.959146
  C      -0.317820      1.315591      3.243193
  C       1.898743      0.396568      1.838534
  O       4.337008     -1.427172     -0.291738
  O       1.051120     -3.404103     -0.963785
  O      -2.738175     -3.663557     -0.075498
  O      -2.766335     -0.605929      2.358571
  O      -0.567783      2.154873      3.998607
  O       2.741836      1.151510      2.173231
  Zn     -4.173785     -4.982742     -0.678930
16
Coordinates from ORCA-job Ni3_zn_single E -6983.291316154651
  Ni      1.641234     -1.116557      0.739203
  Ni     -0.637147     -1.840841      0.810800
  Ni      0.060517      0.044031      2.107701
  C       3.282032     -1.304612      0.119484
  C       0.812374     -2.551165     -0.191459
  C      -1.901325     -2.936571      0.279983
  C      -1.666109     -0.731513      1.964756
  C      -0.315441      1.329189      3.255771
  C       1.908634      0.405504      1.842682
  O       4.340504     -1.423419     -0.286565
  O       1.051928     -3.387375     -0.953163
  O      -2.736501     -3.653576     -0.079356
  O      -2.747329     -0.602788      2.353493
  O      -0.561112      2.156604      4.000417
  O       2.734183      1.146964      2.168684
  Zn     -4.245111     -5.055734     -0.701881
16
Coordinates from ORCA-job Ni3_zn_single E -6983.297078894502
  Ni      1.647213     -1.113453      0.739400
  Ni     -0.635965     -1.838709      0.810508
  Ni      0.063555      0.049075      2.111040
  C       3.297257     -1.303293      0.118391
  C       0.819097     -2.552293     -0.194901
  C      -1.904051     -2.936115      0.277375
  C      -1.668563     -0.726130      1.969347
  C      -0.313276      1.340211      3.266404
  C       1.917031      0.412977      1.846291
  O       4.355112     -1.422264     -0.286145
  O       1.056237     -3.386605     -0.957242
  O      -2.738535     -3.649205     -0.083404
  O      -2.749326     -0.597372      2.355059
  O      -0.557989      2.166715      4.010709
  O       2.740968      1.154957      2.169988
  Zn     -4.307435     -5.120355     -0.722270
16
Coordinates from ORCA-job Ni3_zn_single E -6983.306376135934
  Ni      1.657098     -1.108673      0.740110
  Ni     -0.634982     -1.834569      0.809880
  Ni      0.068476      0.058178      2.116876
  C       3.321500     -1.300443      0.115532
  C       0.828854     -2.552906     -0.201326
  C      -1.910025     -2.935232      0.272817
  C      -1.672992     -0.715591      1.975954
  C      -0.309233      1.359807      3.283082
  C       1.931168      0.424232      1.853390
  O       4.387357     -1.420382     -0.291229
  O       1.065702     -3.395966     -0.972130
  O      -2.745266     -3.645257     -0.092022
  O      -2.765547     -0.586226      2.363928
  O      -0.554373      2.192692      4.032853
  O       2.763894      1.172910      2.180934
  Zn     -4.410303     -5.234435     -0.758098
16
Coordinates from ORCA-job Ni3_zn_single E -6983.311330131312
  Ni      1.667585     -1.103478      0.740764
  Ni     -0.633580     -1.830010      0.808597
  Ni      0.073702      0.067540      2.122633
  C       3.344828     -1.296692      0.113689
  C       0.838531     -2.551650     -0.207271
  C      -1.915669     -2.933993      0.267421
  C      -1.675707     -0.705063      1.980953
  C      -0.304486      1.378159      3.298662
  C       1.944542      0.434615      1.860418
  O       4.414531     -1.417156     -0.293484
  O       1.074479     -3.398484     -0.981970
  O      -2.751456     -3.639886     -0.100322
  O      -2.773577     -0.575671      2.369358
  O      -0.549286      2.213958      4.051063
  O       2.781412      1.185339      2.190650
  Zn     -4.514519     -5.349387     -0.790612
16
Coordinates from ORCA-job Ni3_zn_single E -6983.314365250954
  Ni      1.678360     -1.097961      0.741573
  Ni     -0.631700     -1.825121      0.807340
  Ni      0.079312      0.076993      2.128470
  C       3.366045     -1.292160      0.113169
  C       0.847767     -2.548540     -0.211726
  C      -1.920497     -2.931753      0.261750
  C      -1.676132     -0.694863      1.984865
  C      -0.298682      1.394622      3.312614
  C       1.956685      0.443943      1.866943
  O       4.436466     -1.412878     -0.293135
  O       1.082593     -3.395721     -0.987501
  O      -2.757088     -3.633216     -0.108729
  O      -2.775075     -0.565415      2.372479
  O      -0.542490      2.230819      4.065481
  O       2.794544      1.194043      2.198544
  Zn     -4.618776     -5.464652     -0.821585
16
Coordinates from ORCA-job Ni3_zn_single E -6983.316361970265
  Ni      1.688966     -1.092156      0.742571
  Ni     -0.629672     -1.819531      0.806268
  Ni      0.085258      0.086597      2.134409
  C       3.383820     -1.287142      0.114262
  C       0.855756     -2.543102     -0.214226
  C      -1.924357     -2.927766      0.256241
  C      -1.673924     -0.684751      1.987662
  C      -0.291417      1.408587      3.324506
  C       1.967123      0.451749      1.872750
  O       4.453942     -1.408297     -0.290705
  O       1.089713     -3.389176     -0.990244
  O      -2.761945     -3.625397     -0.117350
  O      -2.772309     -0.554562      2.374193
  O      -0.533800      2.244328      4.077263
  O       2.804945      1.200301      2.205045
  Zn     -4.720768     -5.581542     -0.852095
16
Coordinates from ORCA-job Ni3_zn_single E -6983.317770770886
  Ni      1.699396     -1.085606      0.743017
  Ni     -0.627434     -1.812339      0.803347
  Ni      0.091305      0.096291      2.139522
  C       3.397944     -1.281862      0.118040
  C       0.862533     -2.533947     -0.216329
  C      -1.926406     -2.921695      0.250115
  C      -1.669040     -0.674315      1.987019
  C      -0.282947      1.418271      3.334183
  C       1.975436      0.457588      1.877816
  O       4.468250     -1.404153     -0.284464
  O       1.096443     -3.378351     -0.993011
  O      -2.765650     -3.616145     -0.125163
  O      -2.766858     -0.542484      2.372274
  O      -0.523774      2.252839      4.087864
  O       2.813321      1.204265      2.211442
  Zn     -4.821191     -5.700216     -0.875121
16
Coordinates from ORCA-job Ni3_zn_single E -6983.318944188679
  Ni      1.709576     -1.079129      0.743972
  Ni     -0.624488     -1.805096      0.801056
  Ni      0.097694      0.105369      2.144678
  C       3.406972     -1.275768      0.123756
  C       0.868041     -2.522485     -0.215517
  C      -1.926240     -2.913176      0.244162
  C      -1.660629     -0.665182      1.985003
  C      -0.273280      1.423874      3.340201
  C       1.981234      0.461241      1.881819
  O       4.477863     -1.399043     -0.276481
  O       1.102734     -3.365167     -0.993383
  O      -2.767443     -3.604220     -0.132919
  O      -2.758200     -0.530801      2.369201
  O      -0.512572      2.257740      4.094929
  O       2.819367      1.206729      2.216420
  Zn     -4.919300     -5.816747     -0.896346
16
Coordinates from ORCA-job Ni3_zn_single E -6983.320048189435
  Ni      1.719175     -1.072516      0.745247
  Ni     -0.620712     -1.797513      0.799342
  Ni      0.104432      0.113702      2.149652
  C       3.409454     -1.269102      0.132144
  C       0.871672     -2.508035     -0.211572
  C      -1.923086     -2.901567      0.238787
  C      -1.648190     -0.657409      1.980871
  C      -0.262163      1.423873      3.341941
  C       1.983837      0.462634      1.884021
  O       4.481476     -1.393467     -0.265539
  O       1.108058     -3.349007     -0.991037
  O      -2.766289     -3.589137     -0.139955
  O      -2.745799     -0.519462      2.364244
  O      -0.499732      2.257255      4.098177
  O       2.822356      1.207698      2.219110
  Zn     -5.013160     -5.929808     -0.914882
16
Coordinates from ORCA-job Ni3_zn_single E -6983.320951778482
  Ni      1.728123     -1.065787      0.746750
  Ni     -0.616468     -1.788182      0.796328
  Ni      0.111298      0.121551      2.153776
  C       3.406449     -1.262343      0.142736
  C       0.873359     -2.490431     -0.206951
  C      -1.917091     -2.886703      0.233563
  C      -1.633374     -0.649889      1.973546
  C      -0.250363      1.418954      3.339964
  C       1.984440      0.461598      1.885909
  O       4.480165     -1.387836     -0.251810
  O       1.111885     -3.329512     -0.988587
  O      -2.762081     -3.571379     -0.145549
  O      -2.731293     -0.507766      2.356123
  O      -0.485918      2.251754      4.098416
  O       2.823802      1.205766      2.222528
  Zn     -5.101601     -6.041656     -0.926191
16
Coordinates from ORCA-job Ni3_zn_single E -6983.321171206409
  Ni      1.732159     -1.061747      0.747218
  Ni     -0.613688     -1.782379      0.794493
  Ni      0.115065      0.125202      2.155502
  C       3.401982     -1.259799      0.150306
  C       0.872885     -2.479618     -0.204779
  C      -1.911874     -2.876831      0.231481
  C      -1.624913     -0.645869      1.967656
  C      -0.243720      1.412555      3.338113
  C       1.983602      0.461258      1.885340
  O       4.477203     -1.386580     -0.241151
  O       1.112432     -3.317359     -0.988111
  O      -2.757604     -3.560486     -0.147189
  O      -2.723299     -0.500685      2.348915
  O      -0.477694      2.244399      4.098848
  O       2.823214      1.205668      2.222015
  Zn     -5.144418     -6.099587     -0.928107
16
Coordinates from ORCA-job Ni3_zn_single E -6983.321222712721
  Ni      1.734339     -1.058898      0.747021
  Ni     -0.612314     -1.778041      0.792887
  Ni      0.117330      0.127662      2.156535
  C       3.401303     -1.259967      0.155153
  C       0.872360     -2.473443     -0.205874
  C      -1.909322     -2.870821      0.230384
  C      -1.622007     -0.641817      1.963652
  C      -0.239868      1.409043      3.340017
  C       1.984206      0.463050      1.884525
  O       4.477667     -1.388446     -0.233208
  O       1.111731     -3.309889     -0.990798
  O      -2.755053     -3.554436     -0.147880
  O      -2.720909     -0.494083      2.342763
  O      -0.472374      2.239394      4.103145
  O       2.823702      1.208135      2.220328
  Zn     -5.169460     -6.139303     -0.928101
16
Coordinates from ORCA-job Ni3_zn_single E -6983.321268741692
  Ni      1.736036     -1.055943      0.746514
  Ni     -0.611167     -1.773205      0.791006
  Ni      0.119461      0.129979      2.157469
  C       3.402399     -1.262056      0.160283
  C       0.871534     -2.467965     -0.209309
  C      -1.907181     -2.865086      0.229721
  C      -1.621478     -0.636398      1.959122
  C      -0.236416      1.405442      3.344910
  C       1.985684      0.466820      1.882983
  O       4.480099     -1.393110     -0.223840
  O       1.109945     -3.302458     -0.996596
  O      -2.752574     -3.549356     -0.147915
  O      -2.721200     -0.485203      2.334456
  O      -0.467042      2.233307      4.111484
  O       2.824633      1.213530      2.216535
  Zn     -5.191402     -6.180157     -0.926274
16
Coordinates from ORCA-job Ni3_zn_single E -6983.321356714817
  Ni      1.737555     -1.051169      0.745348
  Ni     -0.609704     -1.764158      0.787249
  Ni      0.122597      0.133192      2.158521
  C       3.405677     -1.269013      0.169764
  C       0.869029     -2.459515     -0.218727
  C      -1.903836     -2.855840      0.229702
  C      -1.624228     -0.625086      1.949875
  C      -0.231315      1.397878      3.357294
  C       1.988796      0.475742      1.878833
  O       4.485869     -1.405931     -0.205436
  O       1.104706     -3.289432     -1.011449
  O      -2.747967     -3.542764     -0.146112
  O      -2.725778     -0.466255      2.316118
  O      -0.458167      2.219705      4.131576
  O       2.826070      1.226894      2.206170
  Zn     -5.217974     -6.246106     -0.918174
16
Coordinates from ORCA-job Ni3_zn_single E -6983.321446038286
  Ni      1.737767     -1.045917      0.744094
  Ni     -0.608496     -1.751548      0.781506
  Ni      0.125913      0.136190      2.158981
  C       3.410125     -1.281545      0.183268
  C       0.864357     -2.448792     -0.234162
  C      -1.899772     -2.844831      0.230894
  C      -1.630881     -0.608030      1.935443
  C      -0.225400      1.385430      3.376728
  C       1.992475      0.488809      1.871736
  O       4.493451     -1.427650     -0.179119
  O       1.095806     -3.270938     -1.035783
  O      -2.741520     -3.537057     -0.141239
  O      -2.735018     -0.436992      2.287180
  O      -0.447133      2.197223      4.162952
  O       2.826661      1.247635      2.188313
  Zn     -5.237005     -6.323847     -0.900244
16
Coordinates from ORCA-job Ni3_zn_single E -6983.321488009959
  Ni      1.736645     -1.043569      0.743889
  Ni     -0.608195     -1.742871      0.776956
  Ni      0.127427      0.137140      2.158399
  C       3.412196     -1.291943      0.193721
  C       0.860283     -2.440889     -0.245837
  C      -1.897168     -2.838971      0.232512
  C      -1.636175     -0.595230      1.923505
  C      -0.221699      1.374388      3.390942
  C       1.993506      0.497432      1.865488
  O       4.497378     -1.445312     -0.159794
  O       1.089021     -3.256136     -1.055018
  O      -2.736911     -3.535977     -0.135754
  O      -2.742061     -0.414252      2.264001
  O      -0.440349      2.177854      4.186432
  O       2.824920      1.262863      2.172884
  Zn     -5.237488     -6.366387     -0.881777
16
Coordinates from ORCA-job Ni3_zn_single E -6983.321542764318
  Ni      1.733979     -1.042256      0.744513
  Ni     -0.608329     -1.732796      0.770969
  Ni      0.128400      0.136949      2.156708
  C       3.413249     -1.306205      0.208051
  C       0.854584     -2.430195     -0.260629
  C      -1.894225     -2.834304      0.235329
  C      -1.642469     -0.578979      1.906925
  C      -0.217492      1.358041      3.408357
  C       1.992512      0.507023      1.856157
  O       4.500295     -1.469463     -0.134858
  O       1.080515     -3.235123     -1.080703
  O      -2.731220     -3.538108     -0.126660
  O      -2.750326     -0.384349      2.232699
  O      -0.433188      2.149966      4.216001
  O       2.819784      1.281928      2.150443
  Zn     -5.224740     -6.403989     -0.852752
16
Coordinates from ORCA-job Ni3_zn_single E -6983.321635068886
  Ni      1.729205     -1.043127      0.746551
  Ni     -0.608932     -1.723203      0.764538
  Ni      0.128302      0.134473      2.153767
  C       3.412423     -1.323808      0.225676
  C       0.847568     -2.417315     -0.277173
  C      -1.891362     -2.833152      0.239723
  C      -1.648799     -0.561218      1.886937
  C      -0.213566      1.336735      3.426960
  C       1.988203      0.516002      1.843623
  O       4.500861     -1.499202     -0.106260
  O       1.071138     -3.208109     -1.111539
  O      -2.724971     -3.545460     -0.113489
  O      -2.758507     -0.349766      2.195375
  O      -0.427490      2.114599      4.248438
  O       2.809786      1.303233      2.120776
  Zn     -5.192529     -6.422541     -0.813355
16
Coordinates from ORCA-job Ni3_zn_single E -6983.321768735183
  Ni      1.722899     -1.047091      0.750088
  Ni     -0.609725     -1.718460      0.760417
  Ni      0.126681      0.129068      2.150281
  C       3.409078     -1.340061      0.242225
  C       0.841116     -2.405143     -0.290060
  C      -1.889721     -2.838627      0.244950
  C      -1.652052     -0.548460      1.869432
  C      -0.211457      1.316062      3.440242
  C       1.979813      0.520131      1.830485
  O       4.497677     -1.527026     -0.082408
  O       1.063910     -3.180536     -1.139285
  O      -2.720291     -3.558753     -0.098865
  O      -2.762983     -0.321444      2.162812
  O      -0.426636      2.081542      4.272765
  O       2.795390      1.319743      2.090354
  Zn     -5.142368     -6.402806     -0.772881
16
Coordinates from ORCA-job Ni3_zn_single E -6983.321887201435
  Ni      1.717400     -1.049762      0.752990
  Ni     -0.610118     -1.713481      0.756234
  Ni      0.125776      0.124258      2.147300
  C       3.405806     -1.356673      0.261955
  C       0.835063     -2.388677     -0.303760
  C      -1.888349     -2.844344      0.249543
  C      -1.652562     -0.534902      1.851434
  C      -0.207691      1.294601      3.453391
  C       1.970517      0.524787      1.815960
  O       4.494658     -1.556985     -0.053637
  O       1.056860     -3.146776     -1.169172
  O      -2.716074     -3.571680     -0.084564
  O      -2.764413     -0.291818      2.129386
  O      -0.424227      2.047233      4.297132
  O       2.779741      1.336737      2.058329
  Zn     -5.101057     -6.394377     -0.731971
16
Coordinates from ORCA-job Ni3_zn_single E -6983.321991433122
  Ni      1.713996     -1.049171      0.754272
  Ni     -0.610170     -1.705370      0.750518
  Ni      0.126560      0.122178      2.145263
  C       3.404598     -1.374205      0.284901
  C       0.829576     -2.368138     -0.320727
  C      -1.886759     -2.846082      0.252999
  C      -1.652726     -0.517376      1.832224
  C      -0.201371      1.272847      3.469490
  C       1.963899      0.533197      1.801502
  O       4.494328     -1.589336     -0.017659
  O       1.048768     -3.107728     -1.203004
  O      -2.711688     -3.580253     -0.071857
  O      -2.765179     -0.257295      2.092951
  O      -0.417101      2.011402      4.325775
  O       2.766491      1.356991      2.026472
  Zn     -5.081893     -6.423521     -0.692571
16
Coordinates from ORCA-job Ni3_zn_single E -6983.322127255063
  Ni      1.713567     -1.046314      0.753854
  Ni     -0.610173     -1.697500      0.744425
  Ni      0.128306      0.122829      2.144727
  C       3.405970     -1.391647      0.311438
  C       0.825402     -2.340366     -0.339554
  C      -1.887165     -2.849831      0.254930
  C      -1.648522     -0.499340      1.813613
  C      -0.192947      1.254342      3.485325
  C       1.957691      0.541050      1.787855
  O       4.496506     -1.623652      0.024464
  O       1.039685     -3.057455     -1.241884
  O      -2.710120     -3.589476     -0.060742
  O      -2.761572     -0.222871      2.056129
  O      -0.407617      1.979424      4.353352
  O       2.753812      1.375736      1.996494
  Zn     -5.081494     -6.476788     -0.653876
16
Coordinates from ORCA-job Ni3_zn_single E -6983.322270979538
  Ni      1.713675     -1.043373      0.753553
  Ni     -0.610457     -1.688635      0.737951
  Ni      0.130331      0.124079      2.144732
  C       3.408363     -1.409457      0.336321
  C       0.821372     -2.314365     -0.360464
  C      -1.887219     -2.851246      0.257434
  C      -1.647556     -0.478990      1.794421
  C      -0.185038      1.236580      3.502926
  C       1.954689      0.551094      1.775976
  O       4.499652     -1.656576      0.065390
  O       1.029570     -3.009892     -1.281122
  O      -2.707958     -3.596496     -0.049943
  O      -2.760715     -0.186627      2.018004
  O      -0.396854      1.948281      4.382608
  O       2.744716      1.395293      1.969557
  Zn     -5.085242     -6.541530     -0.616791
16
Coordinates from ORCA-job Ni3_zn_single E -6983.322462859869
  Ni      1.721689     -1.039409      0.750993
  Ni     -0.612661     -1.683338      0.731439
  Ni      0.132560      0.131629      2.149684
  C       3.420674     -1.424664      0.358506
  C       0.819900     -2.282539     -0.384185
  C      -1.892640     -2.857865      0.258639
  C      -1.643971     -0.459311      1.777339
  C      -0.177549      1.232994      3.521393
  C       1.957401      0.557402      1.773075
  O       4.513201     -1.683356      0.104566
  O       1.014058     -2.951775     -1.327103
  O      -2.713105     -3.605954     -0.042710
  O      -2.758433     -0.155502      1.978510
  O      -0.383579      1.936352      4.408959
  O       2.744042      1.406572      1.957590
  Zn     -5.120256     -6.643097     -0.586144
16
Coordinates from ORCA-job Ni3_zn_single E -6983.322623711274
  Ni      1.720873     -1.039556      0.752944
  Ni     -0.613274     -1.675551      0.726172
  Ni      0.133966      0.130613      2.150655
  C       3.421327     -1.443347      0.380362
  C       0.814937     -2.259936     -0.406411
  C      -1.890995     -2.858284      0.264233
  C      -1.647221     -0.437463      1.756245
  C      -0.171887      1.213846      3.539190
  C       1.956681      0.567133      1.763799
  O       4.514243     -1.713573      0.140889
  O       1.001843     -2.906039     -1.366756
  O      -2.708665     -3.612559     -0.029314
  O      -2.760608     -0.116351      1.935320
  O      -0.373661      1.904548      4.437519
  O       2.737078      1.425240      1.932930
  Zn     -5.113306     -6.700580     -0.547227
16
Coordinates from ORCA-job Ni3_zn_single E -6983.322811754940
  Ni      1.722876     -1.043850      0.755845
  Ni     -0.616561     -1.671649      0.721456
  Ni      0.133698      0.129576      2.155412
  C       3.424075     -1.461017      0.395715
  C       0.808100     -2.239026     -0.430698
  C      -1.888458     -2.859190      0.274423
  C      -1.653854     -0.415658      1.732402
  C      -0.170279      1.199433      3.555829
  C       1.960259      0.570352      1.764693
  O       4.518818     -1.735180      0.169853
  O       0.982155     -2.855900     -1.412064
  O      -2.703241     -3.619944     -0.012027
  O      -2.765693     -0.075468      1.881371
  O      -0.363613      1.881700      4.462394
  O       2.736075      1.434731      1.921460
  Zn     -5.103026     -6.760768     -0.505515
16
Coordinates from ORCA-job Ni3_zn_single E -6983.322984926001
  Ni      1.721665     -1.046145      0.756735
  Ni     -0.619026     -1.665267      0.714397
  Ni      0.132680      0.128530      2.156361
  C       3.421373     -1.482022      0.417992
  C       0.800671     -2.211206     -0.454937
  C      -1.885289     -2.863110      0.283421
  C      -1.655583     -0.394964      1.707171
  C      -0.167088      1.178899      3.570715
  C       1.957916      0.572689      1.758863
  O       4.516262     -1.767961      0.207821
  O       0.965050     -2.794150     -1.458542
  O      -2.696608     -3.631617      0.007943
  O      -2.764363     -0.033732      1.827091
  O      -0.355773      1.848315      4.487820
  O       2.727612      1.445218      1.900106
  Zn     -5.078171     -6.805336     -0.452407
16
Coordinates from ORCA-job Ni3_zn_single E -6983.323184917763
  Ni      1.725858     -1.057790      0.754952
  Ni     -0.630948     -1.672387      0.705598
  Ni      0.124154      0.128164      2.162692
  C       3.419161     -1.497115      0.423432
  C       0.788217     -2.188729     -0.474325
  C      -1.879669     -2.872019      0.300762
  C      -1.658291     -0.384819      1.678045
  C      -0.174579      1.167916      3.575661
  C       1.954234      0.554298      1.768909
  O       4.518169     -1.778270      0.227103
  O       0.936518     -2.730935     -1.502655
  O      -2.687822     -3.648772      0.036880
  O      -2.763518     -0.003690      1.760599
  O      -0.350641      1.833875      4.498235
  O       2.724246      1.426914      1.907035
  Zn     -5.023759     -6.798502     -0.392372
16
Coordinates from ORCA-job Ni3_zn_single E -6983.323395711444
  Ni      1.720138     -1.058670      0.755676
  Ni     -0.630578     -1.664899      0.698840
  Ni      0.123282      0.124037      2.159676
  C       3.412418     -1.519521      0.450562
  C       0.782639     -2.158252     -0.496289
  C      -1.877247     -2.881177      0.307168
  C      -1.655944     -0.364712      1.653038
  C      -0.169799      1.141194      3.590050
  C       1.944805      0.560784      1.751565
  O       4.508509     -1.820197      0.267498
  O       0.928397     -2.671248     -1.540410
  O      -2.681811     -3.665417      0.056863
  O      -2.756592      0.034781      1.715581
  O      -0.348460      1.790079      4.524166
  O       2.707364      1.442833      1.872883
  Zn     -4.985789     -6.811477     -0.336315
16
Coordinates from ORCA-job Ni3_zn_single E -6983.323534767305
  Ni      1.716098     -1.064068      0.755889
  Ni     -0.633858     -1.662410      0.691121
  Ni      0.119441      0.118058      2.159086
  C       3.408156     -1.541519      0.470872
  C       0.775161     -2.130061     -0.518305
  C      -1.874963     -2.894761      0.317658
  C      -1.655550     -0.345120      1.623817
  C      -0.169974      1.116069      3.604553
  C       1.934953      0.560262      1.740771
  O       4.502137     -1.856059      0.299322
  O       0.915579     -2.609684     -1.579130
  O      -2.675606     -3.687313      0.082350
  O      -2.749970      0.075167      1.659733
  O      -0.349492      1.750051      4.548661
  O       2.690723      1.450386      1.847660
  Zn     -4.931505     -6.800858     -0.273508
16
Coordinates from ORCA-job Ni3_zn_single E -6983.323615270248
  Ni      1.712789     -1.071119      0.755055
  Ni     -0.639479     -1.661934      0.682362
  Ni      0.113970      0.111129      2.159217
  C       3.405092     -1.562382      0.486082
  C       0.766715     -2.105726     -0.538295
  C      -1.872734     -2.908865      0.329680
  C      -1.656320     -0.326339      1.593854
  C      -0.172984      1.090904      3.619187
  C       1.924823      0.556359      1.734081
  O       4.497519     -1.887425      0.324992
  O       0.901274     -2.552077     -1.614378
  O      -2.669057     -3.710146      0.109820
  O      -2.742160      0.117314      1.598984
  O      -0.352254      1.710568      4.572744
  O       2.673091      1.454737      1.826601
  Zn     -4.868956     -6.776859     -0.209436
16
Coordinates from ORCA-job Ni3_zn_single E -6983.323630736520
  Ni      1.711572     -1.074237      0.753832
  Ni     -0.643457     -1.661560      0.677017
  Ni      0.110963      0.107986      2.159081
  C       3.404334     -1.571315      0.491281
  C       0.762604     -2.096130     -0.546240
  C      -1.872278     -2.914551      0.335032
  C      -1.656870     -0.316728      1.579587
  C      -0.174946      1.078005      3.626994
  C       1.919587      0.554358      1.731790
  O       4.496239     -1.900361      0.335076
  O       0.895378     -2.529401     -1.627892
  O      -2.666318     -3.720213      0.122641
  O      -2.737217      0.139851      1.568769
  O      -0.353489      1.690039      4.585519
  O       2.663649      1.457047      1.817266
  Zn     -4.838421     -6.764649     -0.179202
16
Coordinates from ORCA-job Ni3_zn_single E -6983.323635317065
  Ni      1.711820     -1.074007      0.753381
  Ni     -0.644489     -1.660848      0.675808
  Ni      0.110798      0.108209      2.158886
  C       3.404891     -1.571851      0.491426
  C       0.762159     -2.095668     -0.546413
  C      -1.872771     -2.913679      0.335076
  C      -1.656910     -0.313953      1.577446
  C      -0.174753      1.075396      3.629318
  C       1.918888      0.555272      1.731245
  O       4.496845     -1.901186      0.336224
  O       0.895686     -2.529774     -1.627647
  O      -2.666455     -3.719964      0.123387
  O      -2.735878      0.145640      1.564048
  O      -0.352587      1.685292      4.589279
  O       2.661852      1.458993      1.815241
  Zn     -4.837767     -6.769733     -0.176157
16
Coordinates from ORCA-job Ni3_zn_single E -6983.323644144580
  Ni      1.712399     -1.072470      0.752943
  Ni     -0.646229     -1.659590      0.674589
  Ni      0.111292      0.109745      2.157595
  C       3.406727     -1.569811      0.490030
  C       0.762562     -2.099069     -0.542121
  C      -1.875020     -2.909472      0.332883
  C      -1.656142     -0.309228      1.576281
  C      -0.173256      1.070950      3.634010
  C       1.917041      0.559275      1.728278
  O       4.498796     -1.898891      0.335284
  O       0.900856     -2.541801     -1.619348
  O      -2.668445     -3.716042      0.120648
  O      -2.732906      0.155230      1.562087
  O      -0.350019      1.676088      4.597005
  O       2.657553      1.465275      1.809182
  Zn     -4.843881     -6.782049     -0.178794
16
Coordinates from ORCA-job Ni3_zn_single E -6983.323647495979
  Ni      1.712360     -1.071866      0.753897
  Ni     -0.646032     -1.658429      0.675331
  Ni      0.112091      0.111246      2.156958
  C       3.406635     -1.570665      0.492030
  C       0.762128     -2.098782     -0.541770
  C      -1.875162     -2.905874      0.332596
  C      -1.656051     -0.305721      1.574488
  C      -0.171682      1.067922      3.637031
  C       1.917161      0.562639      1.725551
  O       4.498654     -1.900659      0.338954
  O       0.901698     -2.541690     -1.618816
  O      -2.668240     -3.712724      0.119735
  O      -2.731616      0.161449      1.558855
  O      -0.347232      1.669779      4.602243
  O       2.656089      1.470203      1.802998
  Zn     -4.849471     -6.798688     -0.179531
16
Coordinates from ORCA-job Ni3_zn_single E -6983.323650719439
  Ni      1.712196     -1.071290      0.754872
  Ni     -0.645426     -1.659228      0.677345
  Ni      0.112840      0.112818      2.156080
  C       3.406883     -1.569174      0.492100
  C       0.762883     -2.101689     -0.537947
  C      -1.876189     -2.903969      0.330908
  C      -1.654969     -0.307089      1.577145
  C      -0.170475      1.068921      3.637339
  C       1.916647      0.564606      1.722525
  O       4.498746     -1.899312      0.338348
  O       0.904799     -2.547054     -1.613741
  O      -2.669521     -3.710076      0.116231
  O      -2.731120      0.159022      1.565141
  O      -0.346283      1.669963      4.602978
  O       2.655114      1.472705      1.798467
  Zn     -4.854795     -6.801016     -0.187240
16
Coordinates from ORCA-job Ni3_zn_single E -6983.323652717296
  Ni      1.711884     -1.071393      0.755838
  Ni     -0.644643     -1.660326      0.679382
  Ni      0.113332      0.113774      2.155913
  C       3.406462     -1.569889      0.493694
  C       0.762752     -2.101847     -0.537025
  C      -1.876417     -2.903578      0.330489
  C      -1.654285     -0.308880      1.578738
  C      -0.169813      1.070499      3.637064
  C       1.916664      0.565404      1.720152
  O       4.498075     -1.900984      0.340351
  O       0.904703     -2.544369     -1.613984
  O      -2.669728     -3.709390      0.114781
  O      -2.731139      0.155843      1.568871
  O      -0.345777      1.671623      4.602643
  O       2.655082      1.473681      1.794838
  Zn     -4.855821     -6.802028     -0.191195
16
Coordinates from ORCA-job Ni3_zn_single E -6983.323654159359
  Ni      1.711648     -1.071515      0.756229
  Ni     -0.644373     -1.661213      0.680560
  Ni      0.113658      0.114035      2.156195
  C       3.406003     -1.571370      0.495271
  C       0.762106     -2.100997     -0.537375
  C      -1.876589     -2.903691      0.330356
  C      -1.653909     -0.310256      1.579696
  C      -0.169538      1.071765      3.636876
  C       1.916699      0.565719      1.718555
  O       4.497379     -1.903664      0.342951
  O       0.903490     -2.540089     -1.615778
  O      -2.669637     -3.709645      0.114284
  O      -2.731118      0.153753      1.570837
  O      -0.345504      1.673212      4.602272
  O       2.654977      1.474213      1.792285
  Zn     -4.853959     -6.802116     -0.192664
16
Coordinates from ORCA-job Ni3_zn_single E -6983.323655771562
  Ni      1.711392     -1.071321      0.756157
  Ni     -0.644482     -1.661957      0.681289
  Ni      0.114137      0.113850      2.156807
  C       3.405382     -1.573490      0.497029
  C       0.760982     -2.099655     -0.538284
  C      -1.877005     -2.903718      0.329890
  C      -1.653591     -0.311711      1.580973
  C      -0.169296      1.073076      3.636708
  C       1.916729      0.566171      1.716928
  O       4.496441     -1.907572      0.346464
  O       0.901749     -2.535348     -1.618102
  O      -2.669517     -3.710167      0.113722
  O      -2.731000      0.151896      1.573141
  O      -0.345216      1.675010      4.601821
  O       2.654592      1.475107      1.789581
  Zn     -4.849966     -6.802031     -0.193574
16
Coordinates from ORCA-job Ni3_zn_single E -6983.323658271347
  Ni      1.711034     -1.070380      0.755387
  Ni     -0.645116     -1.662279      0.681329
  Ni      0.115008      0.113212      2.157729
  C       3.404351     -1.576533      0.499216
  C       0.759152     -2.097727     -0.539808
  C      -1.877928     -2.903227      0.328553
  C      -1.653278     -0.313307      1.582995
  C      -0.168920      1.074353      3.636556
  C       1.916783      0.567229      1.714867
  O       4.494906     -1.913553      0.351661
  O       0.899548     -2.530554     -1.620782
  O      -2.669447     -3.710725      0.112664
  O      -2.730741      0.150214      1.576743
  O      -0.344802      1.676762      4.601389
  O       2.653765      1.476999      1.786101
  Zn     -4.842984     -6.802345     -0.194050
16
Coordinates from ORCA-job Ni3_zn_single E -6983.323660580912
  Ni      1.710677     -1.068678      0.754032
  Ni     -0.646181     -1.661471      0.680113
  Ni      0.115995      0.112601      2.158285
  C       3.403167     -1.579165      0.500898
  C       0.757352     -2.096085     -0.541292
  C      -1.879172     -2.901956      0.326464
  C      -1.653149     -0.313878      1.584732
  C      -0.168475      1.074426      3.636641
  C       1.916860      0.568892      1.713079
  O       4.493186     -1.919336      0.356617
  O       0.898213     -2.528833     -1.622226
  O      -2.669548     -3.710799      0.111419
  O      -2.730435      0.150063      1.580119
  O      -0.344418      1.676498      4.601674
  O       2.652811      1.479570      1.783143
  Zn     -4.835553     -6.803706     -0.193148
16
Coordinates from ORCA-job Ni3_zn_single E -6983.323662464857
  Ni      1.710407     -1.066821      0.752727
  Ni     -0.647271     -1.659624      0.677979
  Ni      0.116670      0.112712      2.157919
  C       3.402185     -1.580403      0.501554
  C       0.756274     -2.095394     -0.542106
  C      -1.880325     -2.900208      0.324335
  C      -1.653285     -0.312842      1.585052
  C      -0.168125      1.072825      3.637122
  C       1.916936      0.570735      1.711959
  O       4.491816     -1.922872      0.359633
  O       0.898410     -2.530788     -1.621838
  O      -2.669814     -3.710257      0.110589
  O      -2.730237      0.151849      1.581478
  O      -0.344260      1.673247      4.603146
  O       2.652227      1.481952      1.781487
  Zn     -4.830279     -6.805972     -0.190486
16
Coordinates from ORCA-job Ni3_zn_single E -6983.323663671459
  Ni      1.710239     -1.065496      0.752039
  Ni     -0.648036     -1.657535      0.675829
  Ni      0.116831      0.113753      2.156723
  C       3.401589     -1.580342      0.501384
  C       0.756027     -2.095642     -0.542129
  C      -1.881119     -2.898591      0.322834
  C      -1.653605     -0.310714      1.583789
  C      -0.168017      1.070188      3.637919
  C       1.916981      0.572256      1.711369
  O       4.491031     -1.923910      0.360471
  O       0.899669     -2.534391     -1.620342
  O      -2.670146     -3.709447      0.110503
  O      -2.730220      0.154711      1.580400
  O      -0.344445      1.667965      4.605531
  O       2.652233      1.483472      1.780914
  Zn     -4.827683     -6.808136     -0.186683
