30
Coordinates from ORCA-job Ni3_Pt2Ni E -7631.352020469668
  Ni     -1.547676      0.921554     -0.430849
  Ni      0.739139      1.658248     -0.568874
  Ni      0.018587     -0.265433     -1.817988
  C      -3.204070      1.230154      0.071288
  C      -0.798705      2.633765     -0.033074
  C       1.978336      2.849659     -0.203875
  C       1.521014      0.869171     -2.112878
  C       0.324518     -1.465603     -3.066020
  C      -1.880644     -0.275514     -1.863162
  O      -4.284759      1.446006      0.382058
  O      -1.127687      3.709079      0.274455
  O       2.783669      3.631522      0.021372
  O       2.383787      1.042388     -2.877471
  O       0.516676     -2.236130     -3.890820
  O      -2.763329     -0.697034     -2.500631
  Pt      1.725994     -0.962232      0.491962
  Ni     -0.732410     -1.693727      0.536858
  Pt     -0.052314      0.294560      2.009965
  C       3.484723     -1.270833     -0.095484
  C       0.785118     -2.701098     -0.075057
  C      -1.951477     -2.857493      0.055116
  C      -1.695867     -0.949049      2.018333
  C      -0.526830      1.544410      3.331330
  C       2.019609      0.385454      2.046207
  O       4.561601     -1.463824     -0.444656
  O       1.046924     -3.764696     -0.480844
  O      -2.739032     -3.630781     -0.241007
  O      -2.660649     -1.143428      2.647410
  O      -0.812475      2.297570      4.149740
  O       2.888229      0.863339      2.666595
30
Coordinates from ORCA-job Ni3_Pt2Ni E -7631.358487183777
  Ni     -1.548841      0.917987     -0.427394
  Ni      0.740263      1.651177     -0.556312
  Ni      0.021008     -0.269809     -1.811751
  C      -3.206649      1.224988      0.075129
  C      -0.799193      2.630645     -0.028261
  C       1.983150      2.836421     -0.178247
  C       1.526082      0.864519     -2.100888
  C       0.332036     -1.473670     -3.056663
  C      -1.879221     -0.278821     -1.862148
  O      -4.299178      1.441314      0.391491
  O      -1.131168      3.718572      0.286328
  O       2.799343      3.622514      0.058943
  O       2.405621      1.036857     -2.868646
  O       0.529306     -2.256505     -3.886574
  O      -2.771432     -0.708244     -2.507119
  Pt      1.733597     -0.963791      0.477836
  Ni     -0.737201     -1.696867      0.536889
  Pt     -0.059514      0.303726      2.012861
  C       3.499252     -1.266941     -0.134760
  C       0.780160     -2.706885     -0.077435
  C      -1.959870     -2.856290      0.049907
  C      -1.700961     -0.951078      2.020272
  C      -0.542144      1.571729      3.333237
  C       2.025953      0.396831      2.037971
  O       4.583111     -1.456933     -0.501419
  O       1.043466     -3.781725     -0.492212
  O      -2.758331     -3.634110     -0.255147
  O      -2.678698     -1.144046      2.655386
  O      -0.835676      2.340114      4.150885
  O       2.905725      0.888327      2.657837
30
Coordinates from ORCA-job Ni3_Pt2Ni E -7631.359136996592
  Ni     -1.547595      0.914204     -0.423049
  Ni      0.743825      1.643841     -0.545022
  Ni      0.024573     -0.274347     -1.806417
  C      -3.205791      1.218291      0.083784
  C      -0.796538      2.626869     -0.023057
  C       1.992354      2.819359     -0.150097
  C       1.531201      0.860481     -2.091525
  C       0.340493     -1.483788     -3.046315
  C      -1.876510     -0.281844     -1.860195
  O      -4.301193      1.432377      0.406765
  O      -1.128304      3.718581      0.298988
  O       2.814508      3.601244      0.100364
  O       2.421751      1.029105     -2.855846
  O       0.541236     -2.275041     -3.873188
  O      -2.772476     -0.718482     -2.505047
  Pt      1.729358     -0.959691      0.473154
  Ni     -0.739812     -1.698098      0.537520
  Pt     -0.060218      0.306302      2.008805
  C       3.477004     -1.241837     -0.152817
  C       0.781068     -2.704923     -0.075662
  C      -1.965380     -2.853607      0.045180
  C      -1.699522     -0.947535      2.022385
  C      -0.535597      1.575992      3.308158
  C       2.010951      0.391416      2.023059
  O       4.560826     -1.421214     -0.534802
  O       1.050067     -3.779764     -0.501110
  O      -2.768309     -3.630022     -0.267287
  O      -2.685043     -1.129748      2.658158
  O      -0.831717      2.357222      4.117231
  O       2.894790      0.904663      2.627884
30
Coordinates from ORCA-job Ni3_Pt2Ni E -7631.359325250727
  Ni     -1.550142      0.912593     -0.422184
  Ni      0.741192      1.644779     -0.543488
  Ni      0.024192     -0.274242     -1.806401
  C      -3.208588      1.211715      0.089389
  C      -0.801103      2.627044     -0.024003
  C       1.991568      2.816550     -0.139672
  C       1.528560      0.864455     -2.092134
  C       0.344328     -1.487807     -3.042326
  C      -1.877450     -0.284310     -1.859976
  O      -4.303115      1.421571      0.417881
  O      -1.133734      3.717857      0.301709
  O       2.814310      3.595351      0.117945
  O       2.422200      1.031810     -2.853800
  O       0.547487     -2.283569     -3.864196
  O      -2.773504     -0.726623     -2.501653
  Pt      1.734867     -0.961168      0.466962
  Ni     -0.740443     -1.697115      0.535617
  Pt     -0.060715      0.311966      2.007876
  C       3.487298     -1.247135     -0.163157
  C       0.780728     -2.703814     -0.079135
  C      -1.968790     -2.849397      0.040292
  C      -1.697029     -0.945367      2.022995
  C      -0.539289      1.592607      3.303986
  C       2.014771      0.394421      2.018266
  O       4.569938     -1.428035     -0.548960
  O       1.049686     -3.777644     -0.508502
  O      -2.773319     -3.622264     -0.276694
  O      -2.684096     -1.123164      2.658524
  O      -0.839499      2.381245      4.104885
  O       2.899692      0.887695      2.639954
30
Coordinates from ORCA-job Ni3_Pt2Ni E -7631.359476019808
  Ni     -1.553008      0.910121     -0.420197
  Ni      0.738673      1.645903     -0.540735
  Ni      0.024281     -0.274077     -1.806722
  C      -3.211573      1.201067      0.100341
  C      -0.806503      2.627065     -0.024595
  C       1.992213      2.811806     -0.123239
  C       1.524994      0.870932     -2.093663
  C       0.350950     -1.494710     -3.036044
  C      -1.878372     -0.287236     -1.859860
  O      -4.303391      1.403444      0.439499
  O      -1.140230      3.716136      0.304150
  O       2.815336      3.585003      0.145971
  O       2.419443      1.039201     -2.853475
  O       0.557648     -2.298330     -3.848182
  O      -2.773847     -0.735653     -2.497351
  Pt      1.740616     -0.964049      0.461332
  Ni     -0.742456     -1.695835      0.531493
  Pt     -0.060148      0.316480      2.007708
  C       3.496833     -1.255499     -0.169695
  C       0.779425     -2.702196     -0.085165
  C      -1.975780     -2.841441      0.028960
  C      -1.694297     -0.942519      2.022944
  C      -0.541127      1.610441      3.296693
  C       2.019730      0.381901      2.024261
  O       4.577165     -1.438779     -0.560139
  O       1.049218     -3.774379     -0.517548
  O      -2.782708     -3.606555     -0.297732
  O      -2.680743     -1.115799      2.660248
  O      -0.847974      2.410893      4.082930
  O       2.905631      0.896670      2.627811
30
Coordinates from ORCA-job Ni3_Pt2Ni E -7631.359714731113
  Ni     -1.556283      0.906794     -0.418444
  Ni      0.735873      1.648335     -0.540477
  Ni      0.024660     -0.274813     -1.808411
  C      -3.214423      1.185479      0.117033
  C      -0.813545      2.628068     -0.029477
  C       1.993309      2.807807     -0.107147
  C       1.519261      0.879802     -2.099693
  C       0.360287     -1.507185     -3.026775
  C      -1.879590     -0.292735     -1.859574
  O      -4.301756      1.376348      0.474025
  O      -1.149420      3.715858      0.298960
  O       2.816650      3.574198      0.176960
  O       2.410868      1.052079     -2.860875
  O       0.571842     -2.324095     -3.823090
  O      -2.774359     -0.747516     -2.492370
  Pt      1.746018     -0.961812      0.456960
  Ni     -0.743790     -1.691742      0.526340
  Pt     -0.055859      0.324751      2.004371
  C       3.497303     -1.251035     -0.178972
  C       0.780095     -2.697165     -0.090953
  C      -1.983681     -2.828638      0.014116
  C      -1.688690     -0.935428      2.023201
  C      -0.537206      1.631679      3.275994
  C       2.024693      0.368745      2.031799
  O       4.573336     -1.431999     -0.580908
  O       1.053194     -3.767939     -0.523876
  O      -2.793858     -3.582782     -0.327048
  O      -2.671724     -1.104386      2.666240
  O      -0.853813      2.449936      4.039121
  O       2.910606      0.849397      2.662969
30
Coordinates from ORCA-job Ni3_Pt2Ni E -7631.359880947200
  Ni     -1.557437      0.903518     -0.416589
  Ni      0.735862      1.649414     -0.540440
  Ni      0.026281     -0.276860     -1.809911
  C      -3.214660      1.171583      0.133220
  C      -0.817222      2.628509     -0.034788
  C       1.995980      2.805251     -0.096623
  C       1.515242      0.886334     -2.105749
  C       0.368812     -1.519651     -3.018683
  C      -1.879445     -0.297364     -1.859574
  O      -4.297568      1.351616      0.508780
  O      -1.155414      3.717030      0.287353
  O       2.819544      3.566936      0.199716
  O       2.399927      1.065918     -2.872533
  O       0.584287     -2.350064     -3.799820
  O      -2.773691     -0.751317     -2.492883
  Pt      1.745699     -0.958083      0.458114
  Ni     -0.745298     -1.687810      0.522191
  Pt     -0.050008      0.328539      2.001398
  C       3.492660     -1.241396     -0.184952
  C       0.780373     -2.693482     -0.092878
  C      -1.990980     -2.816339      0.000218
  C      -1.684234     -0.929780      2.023931
  C      -0.531547      1.644880      3.259043
  C       2.025510      0.348646      2.046470
  O       4.565026     -1.416333     -0.599229
  O       1.056742     -3.763426     -0.525030
  O      -2.804562     -3.559752     -0.356136
  O      -2.663323     -1.096908      2.672894
  O      -0.856687      2.478795      4.001398
  O       2.910130      0.811598      2.691090
30
Coordinates from ORCA-job Ni3_Pt2Ni E -7631.359961817983
  Ni     -1.557236      0.901416     -0.415346
  Ni      0.737102      1.650159     -0.539894
  Ni      0.028645     -0.278463     -1.810510
  C      -3.213725      1.162995      0.142850
  C      -0.818659      2.628818     -0.039130
  C       1.997300      2.806185     -0.092573
  C       1.513468      0.890628     -2.109089
  C       0.374589     -1.526438     -3.014482
  C      -1.877809     -0.299323     -1.860356
  O      -4.293737      1.335580      0.531129
  O      -1.158899      3.718789      0.275645
  O       2.820545      3.566303      0.210447
  O       2.392417      1.076187     -2.880800
  O       0.592395     -2.365576     -3.786104
  O      -2.771548     -0.748523     -2.497508
  Pt      1.744025     -0.956813      0.459995
  Ni     -0.746010     -1.684950      0.520378
  Pt     -0.046024      0.329491      2.000661
  C       3.487066     -1.237985     -0.190012
  C       0.779577     -2.693238     -0.091075
  C      -1.995201     -2.807982     -0.007590
  C      -1.681512     -0.927849      2.025643
  C      -0.530679      1.650142      3.250803
  C       2.028461      0.337049      2.058295
  O       4.556889     -1.408073     -0.613080
  O       1.056305     -3.764040     -0.520483
  O      -2.811356     -3.544085     -0.374260
  O      -2.657990     -1.096437      2.677904
  O      -0.861002      2.492608      3.981346
  O       2.912602      0.793426      2.707193
30
Coordinates from ORCA-job Ni3_Pt2Ni E -7631.360030366476
  Ni     -1.556649      0.899581     -0.414032
  Ni      0.738838      1.650767     -0.538039
  Ni      0.031648     -0.279692     -1.810566
  C      -3.212412      1.155893      0.150118
  C      -0.819574      2.628932     -0.043099
  C       1.997614      2.808451     -0.089314
  C       1.512450      0.894854     -2.110580
  C       0.379424     -1.529932     -3.012346
  C      -1.875075     -0.299246     -1.862143
  O      -4.289911      1.321595      0.549307
  O      -1.161808      3.720373      0.264671
  O       2.820204      3.567795      0.219032
  O       2.387169      1.085292     -2.885940
  O       0.599120     -2.375646     -3.776749
  O      -2.768213     -0.742723     -2.504162
  Pt      1.742102     -0.957742      0.461901
  Ni     -0.746502     -1.682341      0.519551
  Pt     -0.042970      0.329082      2.000535
  C       3.483432     -1.240555     -0.194107
  C       0.777597     -2.695152     -0.086679
  C      -1.998417     -2.800760     -0.012756
  C      -1.678859     -0.928155      2.028396
  C      -0.532388      1.652679      3.246146
  C       2.030510      0.332575      2.062586
  O       4.551351     -1.406819     -0.623834
  O       1.052628     -3.767740     -0.512552
  O      -2.817038     -3.530416     -0.387842
  O      -2.653570     -1.099611      2.682443
  O      -0.865603      2.500844      3.968967
  O       2.914901      0.787819      2.711086
30
Coordinates from ORCA-job Ni3_Pt2Ni E -7631.360120125606
  Ni     -1.555528      0.896928     -0.412212
  Ni      0.741937      1.651246     -0.533212
  Ni      0.037183     -0.281407     -1.809828
  C      -3.210319      1.146442      0.158024
  C      -0.820677      2.628750     -0.049061
  C       1.997210      2.811961     -0.082767
  C       1.512200      0.900835     -2.109954
  C       0.386608     -1.532359     -3.010476
  C      -1.869396     -0.296709     -1.866558
  O      -4.284339      1.302085      0.571346
  O      -1.165698      3.722052      0.249411
  O       2.818547      3.569980      0.233306
  O       2.382788      1.097058     -2.888673
  O       0.609173     -2.385637     -3.766070
  O      -2.761350     -0.732680     -2.515491
  Pt      1.739957     -0.962025      0.464021
  Ni     -0.747547     -1.678743      0.519202
  Pt     -0.040049      0.327719      2.001448
  C       3.477789     -1.248902     -0.201277
  C       0.772656     -2.700700     -0.077377
  C      -2.003045     -2.790575     -0.018393
  C      -1.675293     -0.931068      2.033641
  C      -0.537313      1.654248      3.242261
  C       2.034055      0.334531      2.060479
  O       4.542620     -1.409616     -0.640826
  O       1.042961     -3.777176     -0.496354
  O      -2.825366     -3.510931     -0.404118
  O      -2.647841     -1.108373      2.689286
  O      -0.872091      2.508414      3.957395
  O       2.920168      0.794657      2.702824
30
Coordinates from ORCA-job Ni3_Pt2Ni E -7631.360184545514
  Ni     -1.555090      0.894788     -0.411177
  Ni      0.744213      1.651439     -0.528185
  Ni      0.041856     -0.282632     -1.809212
  C      -3.209012      1.139228      0.162299
  C      -0.822160      2.628330     -0.054696
  C       1.995726      2.814320     -0.075578
  C       1.512149      0.905689     -2.107830
  C       0.391918     -1.532352     -3.010160
  C      -1.864122     -0.292064     -1.872374
  O      -4.280409      1.286420      0.585482
  O      -1.169277      3.722775      0.237324
  O       2.816112      3.570341      0.247329
  O       2.381053      1.105530     -2.887646
  O       0.617243     -2.389875     -3.760129
  O      -2.754988     -0.723831     -2.525749
  Pt      1.738847     -0.966836      0.464718
  Ni     -0.748986     -1.675780      0.519095
  Pt     -0.038902      0.326092      2.002507
  C       3.475390     -1.259247     -0.204659
  C       0.766987     -2.706590     -0.068089
  C      -2.007093     -2.782401     -0.021906
  C      -1.672322     -0.935307      2.038732
  C      -0.540492      1.653512      3.241553
  C       2.035600      0.342937      2.050381
  O       4.538080     -1.416449     -0.650622
  O       1.032371     -3.786792     -0.480607
  O      -2.832585     -3.495439     -0.414255
  O      -2.643064     -1.118174      2.695519
  O      -0.873060      2.510673      3.954066
  O       2.924017      0.811699      2.683869
30
Coordinates from ORCA-job Ni3_Pt2Ni E -7631.360223773789
  Ni     -1.555236      0.893173     -0.411477
  Ni      0.745572      1.650745     -0.524405
  Ni      0.045047     -0.284175     -1.808729
  C      -3.208637      1.135054      0.162346
  C      -0.823464      2.627497     -0.059697
  C       1.994343      2.814053     -0.068966
  C       1.512844      0.907266     -2.104862
  C       0.395493     -1.532627     -3.009657
  C      -1.860169     -0.287303     -1.878442
  O      -4.278953      1.277018      0.589528
  O      -1.171651      3.722547      0.228444
  O       2.814558      3.567517      0.259081
  O       2.382033      1.108399     -2.884020
  O       0.623434     -2.391311     -3.757205
  O      -2.750127     -0.717940     -2.533797
  Pt      1.738295     -0.970476      0.464698
  Ni     -0.751027     -1.674068      0.519260
  Pt     -0.039695      0.324937      2.003860
  C       3.473263     -1.262700     -0.208217
  C       0.762152     -2.710997     -0.060687
  C      -2.010662     -2.777250     -0.023687
  C      -1.671106     -0.938980      2.042459
  C      -0.540090      1.652251      3.244225
  C       2.035543      0.351115      2.040516
  O       4.534035     -1.415773     -0.659965
  O       1.024778     -3.793849     -0.467932
  O      -2.838438     -3.486038     -0.418127
  O      -2.640518     -1.125159      2.700273
  O      -0.867596      2.509907      3.958330
  O       2.925979      0.827171      2.666849
30
Coordinates from ORCA-job Ni3_Pt2Ni E -7631.360251518839
  Ni     -1.556536      0.892089     -0.412751
  Ni      0.745171      1.650478     -0.523411
  Ni      0.045829     -0.285283     -1.809462
  C      -3.209437      1.132444      0.160802
  C      -0.825762      2.626804     -0.064489
  C       1.992073      2.813491     -0.065616
  C       1.512216      0.907631     -2.103723
  C       0.396628     -1.533122     -3.009617
  C      -1.858703     -0.282783     -1.884280
  O      -4.279827      1.271198      0.588420
  O      -1.174609      3.722238      0.220964
  O       2.812825      3.564505      0.265701
  O       2.382028      1.109112     -2.882061
  O       0.627138     -2.391077     -3.756957
  O      -2.748085     -0.713145     -2.540546
  Pt      1.738251     -0.971327      0.463260
  Ni     -0.752938     -1.672765      0.518924
  Pt     -0.040993      0.324629      2.004704
  C       3.474344     -1.263954     -0.206234
  C       0.759262     -2.712447     -0.056515
  C      -2.013335     -2.774053     -0.024845
  C      -1.670291     -0.941432      2.044770
  C      -0.535099      1.650429      3.248496
  C       2.034331      0.356250      2.033761
  O       4.534877     -1.415345     -0.659113
  O       1.021635     -3.796542     -0.460558
  O      -2.842828     -3.481169     -0.417992
  O      -2.638287     -1.129107      2.704283
  O      -0.855772      2.506913      3.966969
  O       2.925895      0.835346      2.657116
30
Coordinates from ORCA-job Ni3_Pt2Ni E -7631.360277393516
  Ni     -1.557942      0.890312     -0.414780
  Ni      0.744917      1.649127     -0.523008
  Ni      0.046642     -0.287982     -1.810120
  C      -3.210395      1.129348      0.158147
  C      -0.828058      2.625334     -0.070627
  C       1.990331      2.811136     -0.062098
  C       1.512262      0.905587     -2.102342
  C       0.398628     -1.536723     -3.007574
  C      -1.857200     -0.278347     -1.891244
  O      -4.281583      1.265110      0.584471
  O      -1.177478      3.721576      0.210430
  O       2.812364      3.558905      0.272852
  O       2.382724      1.107171     -2.879834
  O       0.632785     -2.393700     -3.754754
  O      -2.745685     -0.706527     -2.549980
  Pt      1.737297     -0.971139      0.462586
  Ni     -0.755809     -1.671574      0.518947
  Pt     -0.043186      0.324967      2.006107
  C       3.472776     -1.256345     -0.209665
  C       0.756644     -2.712995     -0.051611
  C      -2.017215     -2.770407     -0.026531
  C      -1.670500     -0.943129      2.047106
  C      -0.527212      1.649810      3.254619
  C       2.032439      0.356871      2.032477
  O       4.531879     -1.401555     -0.667899
  O       1.020731     -3.798078     -0.451734
  O      -2.848847     -3.476112     -0.417266
  O      -2.636846     -1.131110      2.708992
  O      -0.839025      2.504857      3.978633
  O       2.924562      0.835619      2.655700
30
Coordinates from ORCA-job Ni3_Pt2Ni E -7631.360295734272
  Ni     -1.559876      0.888843     -0.416485
  Ni      0.743440      1.649003     -0.525124
  Ni      0.045620     -0.289626     -1.812002
  C      -3.211777      1.126072      0.157232
  C      -0.831166      2.624349     -0.075786
  C       1.987972      2.810614     -0.062819
  C       1.510277      0.904663     -2.104105
  C       0.398784     -1.539822     -3.006641
  C      -1.857898     -0.274916     -1.896596
  O      -4.284006      1.259319      0.582020
  O      -1.181303      3.721372      0.201238
  O       2.811493      3.556107      0.274097
  O       2.380376      1.106771     -2.881897
  O       0.636167     -2.395674     -3.754262
  O      -2.745827     -0.699129     -2.558562
  Pt      1.736701     -0.968337      0.460723
  Ni     -0.757342     -1.670115      0.518378
  Pt     -0.044276      0.326355      2.006342
  C       3.473982     -1.252534     -0.206587
  C       0.756404     -2.711082     -0.049800
  C      -2.019577     -2.767303     -0.028284
  C      -1.669844     -0.943603      2.048460
  C      -0.518748      1.649545      3.259249
  C       2.031291      0.354086      2.035446
  O       4.533683     -1.395672     -0.664298
  O       1.023125     -3.796290     -0.447897
  O      -2.853087     -3.472638     -0.415999
  O      -2.634300     -1.131727      2.713154
  O      -0.823185      2.502782      3.988593
  O       2.922895      0.828592      2.662213
30
Coordinates from ORCA-job Ni3_Pt2Ni E -7631.360305823329
  Ni     -1.560367      0.887106     -0.417189
  Ni      0.743479      1.647938     -0.526125
  Ni      0.045786     -0.291928     -1.812581
  C      -3.212087      1.122850      0.157306
  C      -0.832312      2.623035     -0.079092
  C       1.987889      2.809086     -0.062658
  C       1.509987      0.902797     -2.104967
  C       0.400381     -1.543989     -3.004532
  C      -1.857693     -0.273372     -1.899823
  O      -4.285137      1.254137      0.581018
  O      -1.182894      3.720862      0.194244
  O       2.812714      3.552706      0.276065
  O       2.379589      1.105366     -2.883219
  O       0.640348     -2.399710     -3.751713
  O      -2.744966     -0.692537     -2.565780
  Pt      1.735444     -0.966420      0.461244
  Ni     -0.758459     -1.669101      0.518768
  Pt     -0.045103      0.327963      2.006569
  C       3.471612     -1.244749     -0.211594
  C       0.756461     -2.710019     -0.047335
  C      -2.021848     -2.764242     -0.029716
  C      -1.669949     -0.943184      2.049687
  C      -0.514724      1.650987      3.261477
  C       2.030650      0.349225      2.041641
  O       4.530210     -1.382455     -0.673595
  O       1.025085     -3.795522     -0.443380
  O      -2.857030     -3.468562     -0.416233
  O      -2.633239     -1.131270      2.716106
  O      -0.815171      2.503456      3.993467
  O       2.921342      0.819548      2.671940
30
Coordinates from ORCA-job Ni3_Pt2Ni E -7631.360310324215
  Ni     -1.560521      0.886360     -0.416873
  Ni      0.743184      1.648100     -0.527377
  Ni      0.045285     -0.292220     -1.813283
  C      -3.212249      1.120989      0.158512
  C      -0.832981      2.622627     -0.079469
  C       1.987817      2.809464     -0.064355
  C       1.509006      0.903019     -2.106801
  C       0.400383     -1.544698     -3.004814
  C      -1.858392     -0.272919     -1.900282
  O      -4.285718      1.251387      0.581710
  O      -1.183815      3.720594      0.193275
  O       2.813232      3.552647      0.274467
  O       2.378011      1.105974     -2.885693
  O       0.641161     -2.400110     -3.752255
  O      -2.745587     -0.689483     -2.567996
  Pt      1.735462     -0.964958      0.461155
  Ni     -0.757870     -1.668431      0.518881
  Pt     -0.044718      0.329302      2.005957
  C       3.471821     -1.245622     -0.210402
  C       0.757495     -2.708985     -0.047451
  C      -2.021907     -2.762849     -0.030002
  C      -1.669216     -0.942642      2.049985
  C      -0.514630      1.651947      3.261319
  C       2.031056      0.347361      2.044298
  O       4.530966     -1.383588     -0.671101
  O       1.026367     -3.794464     -0.443510
  O      -2.857813     -3.466827     -0.415998
  O      -2.632016     -1.131197      2.716993
  O      -0.814810      2.503671      3.994362
  O       2.920997      0.815554      2.676747
30
Coordinates from ORCA-job Ni3_Pt2Ni E -7631.360314157915
  Ni     -1.560200      0.885314     -0.416149
  Ni      0.743436      1.647818     -0.527930
  Ni      0.045342     -0.292796     -1.813466
  C      -3.212216      1.118855      0.159522
  C      -0.833112      2.621900     -0.079234
  C       1.988424      2.809288     -0.065240
  C       1.508751      0.902869     -2.107951
  C       0.401012     -1.545260     -3.005096
  C      -1.858548     -0.272303     -1.900651
  O      -4.286230      1.248325      0.581695
  O      -1.184075      3.719860      0.193547
  O       2.814459      3.551741      0.273903
  O       2.377392      1.106024     -2.887232
  O       0.642637     -2.400116     -3.752957
  O      -2.745621     -0.686772     -2.569834
  Pt      1.735620     -0.964352      0.462032
  Ni     -0.757236     -1.667805      0.519548
  Pt     -0.044441      0.330755      2.005600
  C       3.471369     -1.246099     -0.211596
  C       0.758103     -2.708700     -0.046825
  C      -2.022265     -2.761069     -0.029805
  C      -1.668617     -0.942069      2.050587
  C      -0.516166      1.652912      3.260761
  C       2.031453      0.346781      2.045847
  O       4.530438     -1.383360     -0.672661
  O       1.026430     -3.794349     -0.442834
  O      -2.859083     -3.464223     -0.415515
  O      -2.631136     -1.131245      2.717798
  O      -0.816710      2.503695      3.994766
  O       2.920789      0.814385      2.679371
