30
Coordinates from ORCA-job Pt2Ni_PtNi2_2 E -6242.641792083813
  Pt     -1.703613      0.943409     -0.484182
  Pt      0.796073      1.836099     -0.591270
  Ni      0.063450     -0.234006     -1.928331
  C      -3.502466      1.097455      0.043226
  C      -0.906980      2.758292      0.140801
  C       2.142499      3.081596     -0.184737
  C       1.613913      0.865814     -2.221194
  C       0.456687     -1.467920     -3.110925
  C      -1.840388     -0.371547     -2.068305
  O      -4.601239      1.200567      0.359733
  O      -1.257524      3.785706      0.575765
  O       2.960296      3.850099      0.056432
  O       2.499199      0.982281     -2.972026
  O       0.706140     -2.257287     -3.898068
  O      -2.657531     -0.861204     -2.744174
  Pt      1.678504     -0.991463      0.472809
  Ni     -0.767238     -1.645788      0.566947
  Ni     -0.004644      0.248303      1.909404
  C       3.451442     -1.322137     -0.067126
  C       0.684636     -2.701827     -0.092373
  C      -2.080737     -2.746422      0.184437
  C      -1.511935     -0.884507      2.155701
  C      -0.381508      1.450751      3.133751
  C       1.904774      0.296803      2.074782
  O       4.533743     -1.534393     -0.389494
  O       0.909887     -3.776350     -0.492904
  O      -2.931452     -3.472609     -0.053821
  O      -2.377217     -1.074918      2.912456
  O      -0.617412      2.221503      3.944534
  O       2.740639      0.723703      2.768149
30
Coordinates from ORCA-job Pt2Ni_PtNi2_2 E -6242.648160007942
  Pt     -1.705505      0.925495     -0.464494
  Pt      0.821767      1.818742     -0.572999
  Ni      0.065363     -0.243591     -1.930925
  C      -3.511863      1.064560      0.088804
  C      -0.888216      2.738037      0.183752
  C       2.192655      3.050559     -0.142443
  C       1.620965      0.853097     -2.221383
  C       0.456295     -1.482354     -3.110768
  C      -1.841211     -0.374364     -2.068960
  O      -4.618522      1.157222      0.422587
  O      -1.235547      3.770759      0.644663
  O       3.027570      3.812610      0.115334
  O       2.518540      0.969344     -2.979247
  O       0.706785     -2.285297     -3.902965
  O      -2.671296     -0.866673     -2.750735
  Pt      1.674098     -0.976639      0.455783
  Ni     -0.775293     -1.643197      0.556713
  Ni     -0.024529      0.268860      1.881467
  C       3.460040     -1.296386     -0.094395
  C       0.682614     -2.699151     -0.094309
  C      -2.088278     -2.745453      0.171692
  C      -1.524452     -0.873099      2.140283
  C      -0.414400      1.491043      3.083558
  C       1.886030      0.330828      2.048617
  O       4.553378     -1.502549     -0.425231
  O       0.915877     -3.786294     -0.496255
  O      -2.947850     -3.479545     -0.072856
  O      -2.403105     -1.060010      2.904376
  O      -0.661836      2.283810      3.888166
  O       2.729925      0.779636      2.742169
30
Coordinates from ORCA-job Pt2Ni_PtNi2_2 E -6242.648271486215
  Pt     -1.738597      0.941332     -0.497965
  Pt      0.769715      1.884636     -0.588590
  Ni      0.078456     -0.226390     -1.912376
  C      -3.543797      1.060146      0.022144
  C      -0.968457      2.778156      0.097801
  C       2.094388      3.150049     -0.165319
  C       1.618364      0.896230     -2.195028
  C       0.509026     -1.474684     -3.069612
  C      -1.824984     -0.392455     -2.072538
  O      -4.661376      1.136694      0.339220
  O      -1.345271      3.816893      0.537289
  O       2.909820      3.939656      0.092383
  O       2.536178      1.015503     -2.938510
  O       0.786447     -2.290442     -3.847995
  O      -2.643741     -0.918560     -2.754196
  Pt      1.699654     -1.030323      0.465346
  Ni     -0.773233     -1.628814      0.571590
  Ni      0.038420      0.241111      1.922135
  C       3.463353     -1.385919     -0.101890
  C       0.655355     -2.712416     -0.102926
  C      -2.117859     -2.691380      0.178937
  C      -1.493403     -0.861775      2.170907
  C      -0.311957      1.458529      3.142782
  C       1.952042      0.238865      2.082407
  O       4.551918     -1.615877     -0.448895
  O       0.860071     -3.802903     -0.530213
  O      -3.002318     -3.401194     -0.075121
  O      -2.381808     -1.032948      2.938171
  O      -0.535815      2.251812      3.961771
  O       2.819406      0.656471      2.778290
30
Coordinates from ORCA-job Pt2Ni_PtNi2_2 E -6242.648834871723
  Pt     -1.704925      0.932076     -0.463687
  Pt      0.818394      1.829370     -0.573664
  Ni      0.070739     -0.244946     -1.921908
  C      -3.487936      1.059113      0.103941
  C      -0.889006      2.731933      0.152577
  C       2.172883      3.042301     -0.124397
  C       1.624140      0.858471     -2.209052
  C       0.469859     -1.496893     -3.087439
  C      -1.838057     -0.373879     -2.056595
  O      -4.595878      1.138104      0.452276
  O      -1.239087      3.767967      0.620846
  O       3.010357      3.801780      0.152085
  O       2.539698      0.971154     -2.957174
  O       0.726156     -2.316625     -3.868695
  O      -2.678158     -0.880758     -2.727633
  Pt      1.681342     -0.982327      0.451409
  Ni     -0.779571     -1.641869      0.556035
  Ni     -0.022835      0.266740      1.884308
  C       3.445572     -1.284090     -0.120427
  C       0.680592     -2.697032     -0.097476
  C      -2.101059     -2.731517      0.155539
  C      -1.525155     -0.874772      2.144247
  C      -0.415212      1.504634      3.072155
  C       1.890434      0.316239      2.048539
  O       4.538490     -1.481254     -0.473377
  O       0.915564     -3.784462     -0.518288
  O      -2.969834     -3.457486     -0.106195
  O      -2.416479     -1.054710      2.906908
  O      -0.667267      2.312151      3.868609
  O       2.746236      0.770590      2.736529
30
Coordinates from ORCA-job Pt2Ni_PtNi2_2 E -6242.649040756703
  Pt     -1.730920      0.916327     -0.476361
  Pt      0.795780      1.844939     -0.556062
  Ni      0.081836     -0.240491     -1.912566
  C      -3.538544      1.017091      0.074829
  C      -0.939595      2.736786      0.161055
  C       2.148014      3.079988     -0.086861
  C       1.625219      0.880526     -2.186339
  C       0.512443     -1.495914     -3.063190
  C      -1.823389     -0.393417     -2.072891
  O      -4.649059      1.078684      0.409957
  O      -1.307774      3.771234      0.611393
  O       2.974256      3.844225      0.199933
  O       2.544835      0.999688     -2.922223
  O       0.788698     -2.316314     -3.831353
  O      -2.644489     -0.911265     -2.752292
  Pt      1.687057     -1.007448      0.440223
  Ni     -0.784394     -1.626476      0.561725
  Ni      0.012476      0.270260      1.883360
  C       3.452731     -1.336286     -0.152767
  C       0.653311     -2.706234     -0.101048
  C      -2.128620     -2.689380      0.164609
  C      -1.505564     -0.847373      2.155335
  C      -0.354299      1.522080      3.064835
  C       1.927171      0.288930      2.034551
  O       4.536532     -1.548075     -0.516662
  O       0.865951     -3.793249     -0.523688
  O      -3.009809     -3.394929     -0.095167
  O      -2.392414     -1.010450      2.920445
  O      -0.589226      2.336460      3.854210
  O       2.791784      0.730087      2.713008
30
Coordinates from ORCA-job Pt2Ni_PtNi2_2 E -6242.649252397113
  Pt     -1.724981      0.926549     -0.471523
  Pt      0.799657      1.847171     -0.562806
  Ni      0.078640     -0.241478     -1.911108
  C      -3.525504      1.042918      0.075126
  C      -0.930053      2.747238      0.142198
  C       2.146241      3.082959     -0.108104
  C       1.623537      0.876747     -2.191181
  C       0.501086     -1.498171     -3.064150
  C      -1.828334     -0.388006     -2.062356
  O      -4.636862      1.111440      0.409733
  O      -1.293119      3.782668      0.597985
  O       2.973068      3.850330      0.172762
  O       2.540750      0.996124     -2.932629
  O       0.772018     -2.322238     -3.832524
  O      -2.656285     -0.903427     -2.738008
  Pt      1.690494     -1.005544      0.445857
  Ni     -0.781375     -1.635014      0.562490
  Ni      0.006266      0.260727      1.891999
  C       3.454807     -1.325867     -0.143110
  C       0.663264     -2.706284     -0.100765
  C      -2.120978     -2.702553      0.159503
  C      -1.507958     -0.864207      2.158117
  C      -0.368184      1.509463      3.075197
  C       1.921175      0.282808      2.047899
  O       4.540566     -1.532680     -0.507822
  O       0.882823     -3.792812     -0.525590
  O      -3.000113     -3.410563     -0.107012
  O      -2.396070     -1.034110      2.922815
  O      -0.609358      2.323186      3.865544
  O       2.784780      0.722628      2.731459
30
Coordinates from ORCA-job Pt2Ni_PtNi2_2 E -6242.649326834407
  Pt     -1.720573      0.930035     -0.464994
  Pt      0.804310      1.846707     -0.563328
  Ni      0.077430     -0.242274     -1.910546
  C      -3.515286      1.044824      0.091387
  C      -0.922104      2.749241      0.140470
  C       2.151004      3.077605     -0.107836
  C       1.621760      0.876833     -2.194829
  C       0.496497     -1.502513     -3.062066
  C      -1.831034     -0.383759     -2.055989
  O      -4.624822      1.108880      0.434076
  O      -1.286825      3.795314      0.571089
  O       2.979639      3.842131      0.176860
  O       2.536989      0.997898     -2.939297
  O       0.764985     -2.332017     -3.826085
  O      -2.663776     -0.896175     -2.728913
  Pt      1.692761     -1.002560      0.444975
  Ni     -0.781284     -1.638368      0.560229
  Ni      0.000951      0.258753      1.892064
  C       3.455761     -1.318786     -0.141171
  C       0.668374     -2.705039     -0.101612
  C      -2.119822     -2.706138      0.150592
  C      -1.510254     -0.871433      2.157237
  C      -0.380123      1.512069      3.069472
  C       1.916202      0.280468      2.052208
  O       4.541738     -1.522529     -0.508166
  O       0.892812     -3.791265     -0.525987
  O      -2.998493     -3.412147     -0.124390
  O      -2.398666     -1.044386      2.921609
  O      -0.627304      2.329841      3.854434
  O       2.779151      0.718792      2.738503
30
Coordinates from ORCA-job Pt2Ni_PtNi2_2 E -6242.649461753119
  Pt     -1.712214      0.935020     -0.453379
  Pt      0.814812      1.842888     -0.564950
  Ni      0.075496     -0.246886     -1.910014
  C      -3.500209      1.048608      0.120351
  C      -0.907523      2.756033      0.127166
  C       2.165476      3.064819     -0.103581
  C       1.617552      0.875702     -2.204176
  C       0.489396     -1.517735     -3.054486
  C      -1.836137     -0.377691     -2.044384
  O      -4.605553      1.102898      0.478317
  O      -1.262984      3.798127      0.574946
  O       2.997741      3.821139      0.192618
  O       2.527640      1.000500     -2.954396
  O       0.753780     -2.361486     -3.804167
  O      -2.677857     -0.883541     -2.711136
  Pt      1.696774     -0.993302      0.439834
  Ni     -0.782036     -1.643998      0.555137
  Ni     -0.011464      0.259194      1.887960
  C       3.458948     -1.300014     -0.144355
  C       0.678787     -2.701948     -0.101070
  C      -2.119059     -2.711496      0.130904
  C      -1.514862     -0.883265      2.154795
  C      -0.407347      1.525687      3.049212
  C       1.904580      0.279407      2.057116
  O       4.543875     -1.495470     -0.519420
  O       0.913979     -3.787399     -0.521426
  O      -2.996541     -3.410749     -0.164122
  O      -2.401994     -1.062085      2.919050
  O      -0.668449      2.354104      3.818466
  O       2.765391      0.712943      2.749187
30
Coordinates from ORCA-job Pt2Ni_PtNi2_2 E -6242.649564065023
  Pt     -1.714729      0.936886     -0.451865
  Pt      0.814527      1.844986     -0.563982
  Ni      0.075524     -0.248280     -1.906358
  C      -3.506719      1.053396      0.114514
  C      -0.910423      2.762874      0.121071
  C       2.166474      3.066846     -0.098822
  C       1.613524      0.879861     -2.206090
  C       0.492404     -1.525553     -3.044026
  C      -1.836813     -0.378050     -2.041266
  O      -4.612319      1.104688      0.471159
  O      -1.268024      3.811074      0.551319
  O       2.998647      3.820006      0.204599
  O       2.520327      1.007634     -2.958867
  O       0.758551     -2.377644     -3.782933
  O      -2.678829     -0.883204     -2.707228
  Pt      1.699884     -0.992883      0.437557
  Ni     -0.781519     -1.644933      0.556725
  Ni     -0.008869      0.257158      1.891840
  C       3.461538     -1.295989     -0.155973
  C       0.680726     -2.702707     -0.098758
  C      -2.121164     -2.708384      0.126054
  C      -1.510622     -0.888031      2.160591
  C      -0.405095      1.525719      3.052274
  C       1.907610      0.268854      2.063541
  O       4.543564     -1.486432     -0.541318
  O       0.917306     -3.787837     -0.517506
  O      -3.000193     -3.400391     -0.179529
  O      -2.395132     -1.069160      2.926385
  O      -0.669174      2.356696      3.817155
  O       2.769015      0.692801      2.759733
30
Coordinates from ORCA-job Pt2Ni_PtNi2_2 E -6242.649640323330
  Pt     -1.714742      0.938086     -0.454740
  Pt      0.815818      1.847201     -0.567225
  Ni      0.076464     -0.248364     -1.907251
  C      -3.506074      1.040900      0.122610
  C      -0.911186      2.766788      0.117281
  C       2.170315      3.068165     -0.097794
  C       1.609431      0.885681     -2.214545
  C       0.496450     -1.533787     -3.035905
  C      -1.836223     -0.375490     -2.045491
  O      -4.608183      1.079315      0.490478
  O      -1.269798      3.816459      0.541503
  O       3.003175      3.816644      0.214239
  O       2.511716      1.016246     -2.971313
  O       0.764918     -2.395832     -3.761732
  O      -2.677817     -0.878792     -2.712486
  Pt      1.700417     -0.990892      0.436984
  Ni     -0.783007     -1.640604      0.554825
  Ni     -0.008415      0.261228      1.891422
  C       3.461795     -1.293992     -0.162037
  C       0.680443     -2.701940     -0.093590
  C      -2.125087     -2.699729      0.117065
  C      -1.509861     -0.884985      2.160930
  C      -0.404557      1.530468      3.052568
  C       1.907530      0.259623      2.072072
  O       4.541198     -1.480170     -0.556010
  O       0.917622     -3.788480     -0.506674
  O      -3.005927     -3.383396     -0.200366
  O      -2.392515     -1.067376      2.927681
  O      -0.671959      2.363900      3.813038
  O       2.768059      0.673127      2.774461
30
Coordinates from ORCA-job Pt2Ni_PtNi2_2 E -6242.649699706440
  Pt     -1.714525      0.937196     -0.454612
  Pt      0.817462      1.844058     -0.568745
  Ni      0.075001     -0.250195     -1.907410
  C      -3.509454      1.044703      0.114507
  C      -0.907667      2.764535      0.120853
  C       2.176452      3.058936     -0.093755
  C       1.603352      0.888122     -2.223171
  C       0.495190     -1.541709     -3.029824
  C      -1.837657     -0.373223     -2.048256
  O      -4.611511      1.082304      0.482370
  O      -1.264533      3.814232      0.545962
  O       3.012388      3.800112      0.227196
  O       2.499953      1.021480     -2.985789
  O       0.764676     -2.411579     -3.745765
  O      -2.679111     -0.874141     -2.716956
  Pt      1.699719     -0.985471      0.436545
  Ni     -0.781762     -1.639353      0.555213
  Ni     -0.009336      0.265317      1.890963
  C       3.459903     -1.282198     -0.171275
  C       0.684340     -2.701634     -0.085794
  C      -2.123078     -2.698686      0.113355
  C      -1.506381     -0.886305      2.163888
  C      -0.406914      1.532546      3.054646
  C       1.905908      0.258005      2.077058
  O       4.536950     -1.459947     -0.575304
  O       0.923918     -3.789765     -0.492789
  O      -3.004244     -3.377758     -0.212639
  O      -2.386003     -1.072105      2.933069
  O      -0.678153      2.367078      3.812320
  O       2.765115      0.665447      2.784135
30
Coordinates from ORCA-job Pt2Ni_PtNi2_2 E -6242.649767455840
  Pt     -1.713757      0.937513     -0.460401
  Pt      0.817937      1.842222     -0.571720
  Ni      0.075047     -0.250410     -1.909147
  C      -3.507024      1.035348      0.114320
  C      -0.905883      2.761383      0.123594
  C       2.179275      3.052677     -0.093163
  C       1.597240      0.893280     -2.233764
  C       0.497413     -1.549780     -3.022158
  C      -1.836726     -0.367759     -2.058834
  O      -4.605748      1.062734      0.493111
  O      -1.261406      3.808432      0.556703
  O       3.018477      3.786226      0.237138
  O       2.487604      1.029893     -3.003124
  O       0.770310     -2.429206     -3.725290
  O      -2.676078     -0.864806     -2.733189
  Pt      1.697089     -0.982329      0.438354
  Ni     -0.782253     -1.634144      0.553730
  Ni     -0.009484      0.272721      1.888541
  C       3.455512     -1.275454     -0.178150
  C       0.684539     -2.702617     -0.074020
  C      -2.124058     -2.690872      0.105945
  C      -1.502993     -0.882971      2.165176
  C      -0.406911      1.537364      3.055576
  C       1.904161      0.254658      2.083051
  O       4.529669     -1.444187     -0.593844
  O       0.924156     -3.794354     -0.471655
  O      -3.007338     -3.362285     -0.230653
  O      -2.379098     -1.071937      2.937791
  O      -0.681389      2.374251      3.809494
  O       2.761714      0.654412      2.796583
30
Coordinates from ORCA-job Pt2Ni_PtNi2_2 E -6242.649800252624
  Pt     -1.714151      0.936871     -0.462853
  Pt      0.816547      1.841363     -0.571808
  Ni      0.074859     -0.250241     -1.909207
  C      -3.506692      1.032947      0.112030
  C      -0.906522      2.757588      0.127394
  C       2.179000      3.048124     -0.089801
  C       1.594352      0.895375     -2.235996
  C       0.498319     -1.551984     -3.018673
  C      -1.835866     -0.364056     -2.065346
  O      -4.604161      1.057338      0.495247
  O      -1.261436      3.802274      0.567758
  O       3.021082      3.776470      0.245314
  O       2.482041      1.033949     -3.008521
  O       0.773793     -2.434119     -3.717782
  O      -2.673417     -0.859424     -2.743557
  Pt      1.695603     -0.982923      0.439228
  Ni     -0.781958     -1.632657      0.553064
  Ni     -0.008733      0.275893      1.886101
  C       3.452405     -1.274688     -0.179984
  C       0.684003     -2.705127     -0.067477
  C      -2.123981     -2.687547      0.102961
  C      -1.499085     -0.882974      2.166484
  C      -0.406507      1.540751      3.052325
  C       1.904075      0.256409      2.080980
  O       4.525367     -1.438773     -0.600936
  O       0.922668     -3.799250     -0.460072
  O      -3.009033     -3.355494     -0.236767
  O      -2.372046     -1.074487      2.942441
  O      -0.681928      2.380487      3.802982
  O       2.761399      0.657908      2.794467
30
Coordinates from ORCA-job Pt2Ni_PtNi2_2 E -6242.649824440956
  Pt     -1.714776      0.937222     -0.464238
  Pt      0.815227      1.841443     -0.569794
  Ni      0.075220     -0.249971     -1.907679
  C      -3.505425      1.030785      0.114252
  C      -0.908478      2.756488      0.128684
  C       2.177195      3.047223     -0.087529
  C       1.593829      0.895839     -2.233264
  C       0.499517     -1.552578     -3.015139
  C      -1.834430     -0.359722     -2.070201
  O      -4.601034      1.052115      0.503368
  O      -1.263542      3.800283      0.571946
  O       3.021795      3.772103      0.249104
  O       2.481630      1.034579     -3.006028
  O       0.777621     -2.435173     -3.712870
  O      -2.670347     -0.852285     -2.752689
  Pt      1.694486     -0.986264      0.439974
  Ni     -0.782318     -1.633107      0.552186
  Ni     -0.008394      0.276288      1.884205
  C       3.450824     -1.277042     -0.180570
  C       0.682122     -2.709176     -0.062884
  C      -2.125074     -2.684841      0.099219
  C      -1.495492     -0.885931      2.167896
  C      -0.407383      1.543013      3.047144
  C       1.903982      0.259146      2.076047
  O       4.522964     -1.437105     -0.605427
  O       0.919295     -3.805114     -0.451988
  O      -3.012269     -3.349430     -0.242108
  O      -2.364997     -1.080416      2.947223
  O      -0.683160      2.386561      3.793606
  O       2.761409      0.665072      2.787550
30
Coordinates from ORCA-job Pt2Ni_PtNi2_2 E -6242.649844318032
  Pt     -1.715835      0.937722     -0.464083
  Pt      0.813713      1.843291     -0.568606
  Ni      0.075329     -0.249857     -1.905642
  C      -3.504757      1.029642      0.119276
  C      -0.911673      2.758016      0.126671
  C       2.176635      3.046869     -0.083981
  C       1.594092      0.895006     -2.229149
  C       0.500033     -1.553074     -3.011452
  C      -1.833426     -0.355189     -2.073226
  O      -4.598148      1.048556      0.514908
  O      -1.267550      3.802302      0.568418
  O       3.024556      3.766961      0.254631
  O       2.483060      1.032919     -3.000958
  O       0.780708     -2.435164     -3.708879
  O      -2.668398     -0.845079     -2.758848
  Pt      1.694189     -0.990008      0.440013
  Ni     -0.782628     -1.634639      0.550871
  Ni     -0.008317      0.274976      1.882991
  C       3.450240     -1.279790     -0.180045
  C       0.680573     -2.713292     -0.059856
  C      -2.126226     -2.682680      0.094504
  C      -1.491916     -0.891133      2.169156
  C      -0.409475      1.543961      3.041711
  C       1.903991      0.262539      2.070155
  O       4.521827     -1.435780     -0.607830
  O       0.916631     -3.810467     -0.446294
  O      -3.015638     -3.343965     -0.247704
  O      -2.357774     -1.089189      2.951641
  O      -0.685472      2.391671      3.783514
  O       2.761655      0.674875      2.778087
30
Coordinates from ORCA-job Pt2Ni_PtNi2_2 E -6242.649859032369
  Pt     -1.715804      0.938506     -0.461629
  Pt      0.814661      1.844149     -0.567361
  Ni      0.075113     -0.250431     -1.903513
  C      -3.503276      1.030837      0.127046
  C      -0.911906      2.760528      0.124214
  C       2.178241      3.048170     -0.085844
  C       1.595412      0.891798     -2.225308
  C       0.498580     -1.554246     -3.008434
  C      -1.833250     -0.350325     -2.073518
  O      -4.594299      1.048930      0.529099
  O      -1.268043      3.806521      0.561220
  O       3.029164      3.765302      0.251225
  O       2.486468      1.027237     -2.995129
  O       0.780592     -2.435405     -3.706408
  O      -2.668663     -0.836275     -2.761274
  Pt      1.694129     -0.992419      0.440534
  Ni     -0.783170     -1.637261      0.549052
  Ni     -0.010357      0.272068      1.883218
  C       3.451385     -1.279401     -0.178795
  C       0.680356     -2.716381     -0.058120
  C      -2.126856     -2.682451      0.088619
  C      -1.490533     -0.898454      2.169465
  C      -0.415220      1.542148      3.038553
  C       1.902108      0.265857      2.066933
  O       4.522816     -1.430194     -0.608738
  O       0.916803     -3.813921     -0.442829
  O      -3.017708     -3.341250     -0.254455
  O      -2.353957     -1.100154      2.953502
  O      -0.692095      2.393066      3.776372
  O       2.759310      0.683454      2.772299
30
Coordinates from ORCA-job Pt2Ni_PtNi2_2 E -6242.649867676922
  Pt     -1.715999      0.939108     -0.459856
  Pt      0.815315      1.844948     -0.569080
  Ni      0.074158     -0.251300     -1.903055
  C      -3.502345      1.031735      0.133415
  C      -0.911519      2.763417      0.119975
  C       2.181795      3.045666     -0.086082
  C       1.595769      0.888552     -2.225380
  C       0.496414     -1.556602     -3.006384
  C      -1.834271     -0.347590     -2.072967
  O      -4.591341      1.049441      0.540764
  O      -1.267550      3.810948      0.552642
  O       3.035894      3.758272      0.252313
  O       2.487890      1.022012     -2.994156
  O       0.779160     -2.437671     -3.704063
  O      -2.670801     -0.830983     -2.761050
  Pt      1.694515     -0.991557      0.440655
  Ni     -0.783311     -1.638277      0.547197
  Ni     -0.012327      0.270500      1.884072
  C       3.452462     -1.275325     -0.178191
  C       0.681711     -2.716497     -0.057401
  C      -2.126641     -2.682279      0.084012
  C      -1.490491     -0.903103      2.168691
  C      -0.420227      1.539862      3.038658
  C       1.900386      0.268418      2.066912
  O       4.523894     -1.421219     -0.609658
  O       0.919648     -3.813924     -0.440959
  O      -3.018131     -3.339803     -0.259597
  O      -2.353200     -1.107064      2.952742
  O      -0.697921      2.392202      3.774488
  O       2.757062      0.688116      2.771338
30
Coordinates from ORCA-job Pt2Ni_PtNi2_2 E -6242.649873417004
  Pt     -1.715187      0.939494     -0.457561
  Pt      0.817472      1.843494     -0.570418
  Ni      0.072972     -0.252371     -1.903390
  C      -3.500972      1.034196      0.138081
  C      -0.907925      2.764054      0.119047
  C       2.185762      3.044238     -0.091572
  C       1.596212      0.884715     -2.227055
  C       0.493147     -1.558665     -3.006248
  C      -1.835829     -0.345782     -2.071392
  O      -4.588750      1.053248      0.548507
  O      -1.262941      3.812566      0.549628
  O       3.041753      3.755515      0.244728
  O       2.489012      1.016342     -2.995180
  O       0.775460     -2.439456     -3.704376
  O      -2.674023     -0.827201     -2.758762
  Pt      1.694734     -0.989204      0.441805
  Ni     -0.783377     -1.639001      0.545342
  Ni     -0.015075      0.268999      1.885571
  C       3.453768     -1.269331     -0.176402
  C       0.684098     -2.715143     -0.057360
  C      -2.125649     -2.683508      0.080443
  C      -1.492494     -0.906505      2.166741
  C      -0.425912      1.536502      3.040954
  C       1.897788      0.269814      2.070127
  O       4.525659     -1.410752     -0.608151
  O       0.924343     -3.812079     -0.440525
  O      -3.016897     -3.341272     -0.263167
  O      -2.356216     -1.111567      2.949319
  O      -0.704629      2.388867      3.776318
  O       2.753698      0.689792      2.774945
30
Coordinates from ORCA-job Pt2Ni_PtNi2_2 E -6242.649878025867
  Pt     -1.715159      0.940049     -0.456719
  Pt      0.818300      1.841618     -0.573131
  Ni      0.071138     -0.253559     -1.904542
  C      -3.499999      1.035982      0.141462
  C      -0.904751      2.764570      0.117461
  C       2.189935      3.038518     -0.094317
  C       1.595548      0.881096     -2.230592
  C       0.489807     -1.561433     -3.006102
  C      -1.838049     -0.344992     -2.070617
  O      -4.586394      1.055935      0.555514
  O      -1.258461      3.813522      0.547882
  O       3.048631      3.746113      0.242856
  O       2.488407      1.011694     -2.998688
  O       0.772157     -2.442379     -3.704005
  O      -2.677718     -0.825138     -2.757082
  Pt      1.695150     -0.985374      0.442969
  Ni     -0.783111     -1.638421      0.543202
  Ni     -0.017181      0.268690      1.886917
  C       3.454995     -1.261406     -0.175352
  C       0.687178     -2.712550     -0.056989
  C      -2.124361     -2.683872      0.077339
  C      -1.494438     -0.908193      2.164176
  C      -0.430604      1.533931      3.043747
  C       1.895776      0.271467      2.074073
  O       4.527263     -1.397513     -0.607897
  O       0.930016     -3.809160     -0.439370
  O      -3.015454     -3.342068     -0.265834
  O      -2.359563     -1.113867      2.945091
  O      -0.710243      2.386300      3.778729
  O       2.751185      0.690442      2.779815
30
Coordinates from ORCA-job Pt2Ni_PtNi2_2 E -6242.649880758220
  Pt     -1.715250      0.940436     -0.456619
  Pt      0.818521      1.839681     -0.574188
  Ni      0.069871     -0.254258     -1.905256
  C      -3.499617      1.037529      0.142149
  C      -0.902385      2.763710      0.118517
  C       2.191982      3.035470     -0.097237
  C       1.594950      0.878909     -2.232546
  C       0.487727     -1.562571     -3.006642
  C      -1.839524     -0.344982     -2.070331
  O      -4.585432      1.058405      0.557811
  O      -1.255101      3.812347      0.550813
  O       3.051997      3.741748      0.239451
  O       2.487806      1.009344     -3.000670
  O       0.770142     -2.443222     -3.704930
  O      -2.679848     -0.824990     -2.756134
  Pt      1.695457     -0.983276      0.444270
  Ni     -0.782777     -1.637889      0.541736
  Ni     -0.018021      0.268424      1.887695
  C       3.455450     -1.256899     -0.173893
  C       0.689239     -2.710977     -0.056750
  C      -2.123495     -2.684132      0.075882
  C      -1.495866     -0.908635      2.162096
  C      -0.432844      1.532622      3.045135
  C       1.894871      0.271977      2.076875
  O       4.528045     -1.389734     -0.606699
  O       0.933547     -3.807477     -0.438719
  O      -3.014558     -3.342902     -0.266386
  O      -2.362136     -1.114291      2.941871
  O      -0.712975      2.385240      3.779659
  O       2.750225      0.690394      2.783036
30
Coordinates from ORCA-job Pt2Ni_PtNi2_2 E -6242.649882303778
  Pt     -1.715875      0.940912     -0.457318
  Pt      0.817573      1.838662     -0.574537
  Ni      0.068942     -0.254632     -1.905416
  C      -3.499855      1.038185      0.141825
  C      -0.901940      2.763269      0.119476
  C       2.192398      3.032393     -0.097172
  C       1.594166      0.877948     -2.233080
  C       0.486869     -1.562955     -3.006831
  C      -1.840516     -0.345444     -2.070514
  O      -4.585256      1.059110      0.558695
  O      -1.254220      3.811375      0.553800
  O       3.053421      3.737013      0.240428
  O       2.487101      1.008771     -3.001099
  O       0.769792     -2.443279     -3.705357
  O      -2.680805     -0.825919     -2.756053
  Pt      1.695904     -0.982515      0.445044
  Ni     -0.782375     -1.637303      0.540677
  Ni     -0.017729      0.268462      1.887734
  C       3.456106     -1.254952     -0.173365
  C       0.690412     -2.710358     -0.056458
  C      -2.123208     -2.683697      0.075209
  C      -1.496258     -0.908395      2.160677
  C      -0.433190      1.532879      3.044726
  C       1.895039      0.272380      2.077749
  O       4.528763     -1.385636     -0.606762
  O       0.935211     -3.806972     -0.438016
  O      -3.014624     -3.342545     -0.266090
  O      -2.362956     -1.113884      2.940107
  O      -0.713553      2.386417      3.778122
  O       2.750660      0.690712      2.783798
