30
Coordinates from ORCA-job Pt2Ni_Pt2Ni_v2 E -4853.932469686131
  Pt     -1.732925      1.006580     -0.491210
  Pt      0.804065      1.795816     -0.589626
  Ni     -0.010074     -0.233807     -1.946063
  C      -3.522575      1.214501      0.047004
  C      -0.865039      2.780496      0.140488
  C       2.198312      2.991000     -0.185158
  C       1.577705      0.800551     -2.234347
  C       0.319089     -1.486566     -3.128795
  C      -1.923898     -0.275382     -2.102174
  O      -4.615323      1.351987      0.369481
  O      -1.173524      3.822700      0.572040
  O       3.045138      3.727428      0.054391
  O       2.462527      0.896013     -2.988437
  O       0.523573     -2.289024     -3.915293
  O      -2.755885     -0.707605     -2.796374
  Pt      1.743391     -0.985441      0.510036
  Pt     -0.784346     -1.807901      0.569534
  Ni     -0.015897      0.226484      1.945708
  C       3.545564     -1.164348      0.004710
  C       0.911832     -2.765467     -0.142980
  C      -2.153890     -3.020433      0.132952
  C      -1.591212     -0.838422      2.209517
  C      -0.386871      1.467010      3.129186
  C       1.891851      0.298063      2.128441
  O       4.646914     -1.284187     -0.294721
  O       1.239039     -3.801680     -0.575165
  O      -2.985134     -3.767132     -0.128376
  O      -2.481502     -0.951259      2.954837
  O      -0.620404      2.260440      3.916747
  O       2.709496      0.739586      2.833646
30
Coordinates from ORCA-job Pt2Ni_Pt2Ni_v2 E -4853.938668179569
  Pt     -1.741776      1.004221     -0.489526
  Pt      0.812700      1.799050     -0.588832
  Ni     -0.008531     -0.238765     -1.946788
  C      -3.542882      1.210149      0.055760
  C      -0.865962      2.783723      0.140954
  C       2.218074      2.999100     -0.177665
  C       1.579905      0.797769     -2.236710
  C       0.321586     -1.493844     -3.128495
  C      -1.924169     -0.278853     -2.104785
  O      -4.645928      1.340078      0.387633
  O      -1.177965      3.838131      0.576640
  O       3.078841      3.734983      0.069824
  O       2.474817      0.895259     -2.999959
  O       0.527641     -2.308370     -3.921296
  O      -2.766188     -0.715099     -2.807502
  Pt      1.752071     -0.982833      0.508552
  Pt     -0.792904     -1.811290      0.568444
  Ni     -0.017620      0.231416      1.946409
  C       3.565852     -1.159691     -0.003664
  C       0.912254     -2.768803     -0.143464
  C      -2.173171     -3.028895      0.125230
  C      -1.593540     -0.835595      2.212066
  C      -0.389498      1.474190      3.128924
  C       1.891996      0.301480      2.130827
  O       4.677930     -1.270141     -0.311528
  O       1.242993     -3.817204     -0.579813
  O      -3.016990     -3.776276     -0.145151
  O      -2.493918     -0.950686      2.966479
  O      -0.625129      2.279585      3.922805
  O       2.719508      0.747215      2.844632
30
Coordinates from ORCA-job Pt2Ni_Pt2Ni_v2 E -4853.939375977705
  Pt     -1.742443      1.000557     -0.484036
  Pt      0.816307      1.797356     -0.583562
  Ni     -0.006627     -0.241441     -1.941340
  C      -3.531921      1.203242      0.060540
  C      -0.862679      2.773487      0.139229
  C       2.213439      2.988419     -0.171587
  C       1.580730      0.798791     -2.228466
  C       0.324651     -1.498600     -3.121649
  C      -1.923136     -0.278423     -2.097027
  O      -4.638812      1.325250      0.394849
  O      -1.176450      3.833295      0.574500
  O       3.075131      3.726112      0.083671
  O       2.481949      0.899472     -2.992250
  O       0.532703     -2.320164     -3.913222
  O      -2.772086     -0.715811     -2.799769
  Pt      1.753667     -0.978554      0.503159
  Pt     -0.795430     -1.809173      0.563073
  Ni     -0.018589      0.234539      1.940990
  C       3.555804     -1.152033     -0.008484
  C       0.909341     -2.758266     -0.141710
  C      -2.167255     -3.018194      0.119366
  C      -1.593350     -0.835939      2.203995
  C      -0.391524      1.479312      3.122179
  C       1.892063      0.301381      2.122917
  O       4.667562     -1.269252     -0.327947
  O       1.241878     -3.812040     -0.577686
  O      -3.021847     -3.759080     -0.150198
  O      -2.500064     -0.954317      2.958753
  O      -0.629432      2.291701      3.914801
  O       2.726419      0.748372      2.836909
30
Coordinates from ORCA-job Pt2Ni_Pt2Ni_v2 E -4853.938297763897
  Pt     -1.748348      0.999262     -0.478760
  Pt      0.818059      1.792125     -0.581582
  Ni     -0.013180     -0.247947     -1.938188
  C      -3.537363      1.202661      0.071307
  C      -0.860011      2.767834      0.138029
  C       2.219364      2.979222     -0.166717
  C       1.575056      0.791968     -2.226675
  C       0.314968     -1.508819     -3.116537
  C      -1.930661     -0.277246     -2.091384
  O      -4.629718      1.359701      0.439759
  O      -1.171662      3.830408      0.572290
  O       3.129269      3.669251      0.055985
  O       2.477849      0.893152     -2.990946
  O       0.521454     -2.335080     -3.904608
  O      -2.783856     -0.712464     -2.792822
  Pt      1.748899     -0.981801      0.497029
  Pt     -0.807764     -1.808864      0.560608
  Ni     -0.022600      0.236422      1.937256
  C       3.549944     -1.159150     -0.021701
  C       0.895967     -2.757430     -0.141232
  C      -2.185759     -3.012313      0.115624
  C      -1.598146     -0.833662      2.201854
  C      -0.392386      1.484914      3.116612
  C       1.889306      0.295641      2.116425
  O       4.687951     -1.138921     -0.262801
  O       1.226115     -3.814092     -0.576239
  O      -2.966358     -3.805232     -0.224458
  O      -2.506072     -0.951789      2.957460
  O      -0.628838      2.302080      3.905736
  O       2.728518      0.740171      2.828675
30
Coordinates from ORCA-job Pt2Ni_Pt2Ni_v2 E -4853.939651160854
  Pt     -1.748114      0.995405     -0.477215
  Pt      0.824287      1.795736     -0.578164
  Ni     -0.004456     -0.250815     -1.935319
  C      -3.543646      1.193648      0.077283
  C      -0.860025      2.765489      0.135303
  C       2.230074      2.986193     -0.156342
  C       1.580635      0.795733     -2.222870
  C       0.328525     -1.514542     -3.110579
  C      -1.922520     -0.279900     -2.091210
  O      -4.645667      1.305101      0.431985
  O      -1.174435      3.828188      0.567336
  O       3.105051      3.704274      0.110972
  O       2.483733      0.899655     -2.985820
  O       0.538360     -2.343554     -3.893378
  O      -2.775523     -0.715060     -2.792367
  Pt      1.757854     -0.973819      0.496371
  Pt     -0.804723     -1.808180      0.557361
  Ni     -0.022354      0.243276      1.934940
  C       3.566439     -1.143123     -0.025588
  C       0.904441     -2.751134     -0.137960
  C      -2.184977     -3.017081      0.104266
  C      -1.594722     -0.833121      2.198601
  C      -0.396818      1.494491      3.111227
  C       1.890180      0.302084      2.116719
  O       4.679905     -1.226494     -0.351086
  O       1.237510     -3.807794     -0.570808
  O      -3.037574     -3.751323     -0.190209
  O      -2.503350     -0.954768      2.952350
  O      -0.636663      2.314383      3.895004
  O       2.728569      0.747052      2.829194
30
Coordinates from ORCA-job Pt2Ni_Pt2Ni_v2 E -4853.939762570002
  Pt     -1.746486      0.996082     -0.474956
  Pt      0.823937      1.795863     -0.575962
  Ni     -0.003487     -0.251888     -1.933256
  C      -3.535483      1.191956      0.079775
  C      -0.860193      2.768156      0.136983
  C       2.225863      2.980466     -0.153671
  C       1.581061      0.795304     -2.221832
  C       0.329949     -1.517159     -3.107152
  C      -1.921492     -0.280121     -2.090113
  O      -4.637329      1.300085      0.433266
  O      -1.174370      3.829868      0.568581
  O       3.091042      3.705677      0.122429
  O       2.483818      0.897911     -2.983523
  O       0.540642     -2.346877     -3.888014
  O      -2.773630     -0.716007     -2.789868
  Pt      1.756813     -0.972470      0.495403
  Pt     -0.803903     -1.806085      0.556482
  Ni     -0.022833      0.246385      1.934210
  C       3.558311     -1.138598     -0.026512
  C       0.905103     -2.751699     -0.138348
  C      -2.179937     -3.009322      0.103017
  C      -1.594688     -0.830548      2.198873
  C      -0.397682      1.499117      3.109174
  C       1.889695      0.304253      2.116896
  O       4.662817     -1.250499     -0.370293
  O       1.237964     -3.807351     -0.570778
  O      -3.021330     -3.751132     -0.201115
  O      -2.503049     -0.951089      2.951256
  O      -0.638264      2.319732      3.891012
  O       2.727139      0.749988      2.828036
30
Coordinates from ORCA-job Pt2Ni_Pt2Ni_v2 E -4853.938605118528
  Pt     -1.743144      0.989179     -0.473407
  Pt      0.823277      1.792361     -0.572076
  Ni      0.001602     -0.257363     -1.935251
  C      -3.521458      1.175735      0.083754
  C      -0.862582      2.765105      0.139462
  C       2.216881      2.967700     -0.143020
  C       1.582655      0.796094     -2.223513
  C       0.338640     -1.523952     -3.108309
  C      -1.916519     -0.284181     -2.095062
  O      -4.622803      1.269217      0.437997
  O      -1.178162      3.823758      0.571918
  O       3.101530      3.670115      0.123719
  O       2.485358      0.900788     -2.981535
  O       0.553411     -2.354341     -3.885509
  O      -2.767818     -0.720078     -2.792234
  Pt      1.758159     -0.975307      0.485302
  Pt     -0.798213     -1.811613      0.544016
  Ni     -0.023360      0.242706      1.927751
  C       3.547659     -1.133749     -0.039908
  C       0.912047     -2.757647     -0.149345
  C      -2.163159     -3.007838      0.082620
  C      -1.591598     -0.840111      2.192165
  C      -0.401636      1.496672      3.101879
  C       1.889368      0.298754      2.113522
  O       4.666866     -1.168383     -0.345132
  O       1.246294     -3.810179     -0.582778
  O      -3.112654     -3.643730     -0.120347
  O      -2.499831     -0.962552      2.940818
  O      -0.646035      2.318052      3.879904
  O       2.725223      0.744789      2.822597
30
Coordinates from ORCA-job Pt2Ni_Pt2Ni_v2 E -4853.939942141320
  Pt     -1.746383      0.992574     -0.470656
  Pt      0.826228      1.793837     -0.571723
  Ni     -0.000529     -0.258849     -1.929957
  C      -3.533633      1.181423      0.091053
  C      -0.859800      2.765864      0.135582
  C       2.229597      2.973272     -0.141149
  C       1.581094      0.793993     -2.220336
  C       0.335120     -1.529210     -3.099764
  C      -1.919142     -0.281569     -2.089170
  O      -4.631981      1.280530      0.457390
  O      -1.174466      3.827699      0.565737
  O       3.101569      3.686199      0.144805
  O       2.484776      0.898162     -2.980102
  O       0.548874     -2.363792     -3.874130
  O      -2.772421     -0.717142     -2.787025
  Pt      1.757733     -0.971440      0.488927
  Pt     -0.805162     -1.806247      0.550297
  Ni     -0.024858      0.250952      1.928947
  C       3.557442     -1.132244     -0.041159
  C       0.905491     -2.751829     -0.139115
  C      -2.183540     -3.004544      0.089322
  C      -1.593721     -0.831215      2.195454
  C      -0.401736      1.508672      3.099922
  C       1.888544      0.303137      2.113739
  O       4.664902     -1.212085     -0.383986
  O       1.238578     -3.807641     -0.570200
  O      -3.051540     -3.718314     -0.206648
  O      -2.503004     -0.952965      2.945897
  O      -0.645311      2.334205      3.875177
  O       2.727277      0.748566      2.822870
30
Coordinates from ORCA-job Pt2Ni_Pt2Ni_v2 E -4853.939758580201
  Pt     -1.748250      0.993950     -0.465240
  Pt      0.823552      1.797970     -0.565086
  Ni      0.000241     -0.257873     -1.924096
  C      -3.535381      1.176448      0.101129
  C      -0.864149      2.769022      0.138438
  C       2.227051      2.975674     -0.127515
  C       1.579038      0.799864     -2.215263
  C       0.338993     -1.531124     -3.091025
  C      -1.918515     -0.278741     -2.085970
  O      -4.638910      1.244946      0.459204
  O      -1.180185      3.830603      0.568171
  O       3.151785      3.634922      0.119294
  O       2.483563      0.905630     -2.973709
  O       0.555784     -2.368652     -3.861403
  O      -2.771877     -0.714973     -2.783207
  Pt      1.756255     -0.965167      0.489645
  Pt     -0.805880     -1.802513      0.549994
  Ni     -0.028890      0.257594      1.929368
  C       3.555464     -1.120028     -0.045382
  C       0.906241     -2.747240     -0.135745
  C      -2.184380     -2.997965      0.083112
  C      -1.594856     -0.829202      2.196691
  C      -0.408678      1.518101      3.097533
  C       1.884788      0.307785      2.116592
  O       4.652253     -1.224931     -0.415089
  O       1.240507     -3.802823     -0.566409
  O      -3.039192     -3.718874     -0.233486
  O      -2.505018     -0.952566      2.945729
  O      -0.655284      2.346519      3.868790
  O       2.723927      0.753645      2.824935
30
Coordinates from ORCA-job Pt2Ni_Pt2Ni_v2 E -4853.940063251303
  Pt     -1.744617      0.992273     -0.461444
  Pt      0.827984      1.791857     -0.564163
  Ni      0.002794     -0.271732     -1.918852
  C      -3.529556      1.165968      0.119311
  C      -0.858957      2.770606      0.130126
  C       2.239644      2.957577     -0.114415
  C       1.577970      0.791647     -2.217571
  C       0.342327     -1.556813     -3.075750
  C      -1.916614     -0.279282     -2.085135
  O      -4.618970      1.248293      0.516539
  O      -1.173059      3.833722      0.556899
  O       3.110073      3.657345      0.208141
  O       2.483910      0.896006     -2.974088
  O       0.562403     -2.404589     -3.834051
  O      -2.772997     -0.715194     -2.778396
  Pt      1.753718     -0.968793      0.481429
  Pt     -0.809132     -1.801006      0.545087
  Ni     -0.030221      0.266712      1.920224
  C       3.549330     -1.117903     -0.069655
  C       0.901469     -2.753563     -0.131638
  C      -2.193432     -2.983693      0.067462
  C      -1.592470     -0.825152      2.195396
  C      -0.410331      1.539026      3.078575
  C       1.884604      0.303166      2.111468
  O       4.644586     -1.194567     -0.451451
  O       1.233367     -3.810824     -0.559472
  O      -3.026338     -3.710839     -0.290992
  O      -2.503960     -0.946633      2.942686
  O      -0.660201      2.377743      3.837728
  O       2.726672      0.748641      2.816001
30
Coordinates from ORCA-job Pt2Ni_Pt2Ni_v2 E -4853.940085828195
  Pt     -1.744780      0.989797     -0.466669
  Pt      0.824459      1.792479     -0.567363
  Ni      0.003756     -0.269632     -1.922617
  C      -3.529244      1.161549      0.110530
  C      -0.863387      2.769842      0.128672
  C       2.232725      2.960028     -0.118951
  C       1.578095      0.794625     -2.219964
  C       0.345544     -1.552197     -3.080912
  C      -1.915200     -0.281384     -2.090239
  O      -4.607926      1.282586      0.526119
  O      -1.179065      3.831953      0.556692
  O       3.109038      3.657087      0.192633
  O       2.483734      0.899996     -2.976720
  O       0.566455     -2.397554     -3.841649
  O      -2.769862     -0.717868     -2.785273
  Pt      1.755106     -0.970230      0.484000
  Pt     -0.804804     -1.805659      0.545630
  Ni     -0.030043      0.260715      1.921157
  C       3.551335     -1.116954     -0.063855
  C       0.907128     -2.756988     -0.133020
  C      -2.188527     -2.993482      0.067225
  C      -1.591497     -0.831998      2.195024
  C      -0.412365      1.530574      3.080755
  C       1.884168      0.301649      2.113506
  O       4.649633     -1.189217     -0.437240
  O       1.240733     -3.813167     -0.562166
  O      -3.053783     -3.697447     -0.259729
  O      -2.502667     -0.954283      2.942580
  O      -0.663094      2.366846      3.842293
  O       2.724330      0.748336      2.819550
30
Coordinates from ORCA-job Pt2Ni_Pt2Ni_v2 E -4853.939090459676
  Pt     -1.737293      0.999529     -0.466954
  Pt      0.826742      1.792989     -0.572175
  Ni      0.000770     -0.262380     -1.924761
  C      -3.514739      1.176501      0.115973
  C      -0.854627      2.779138      0.130678
  C       2.237893      2.950624     -0.125932
  C       1.576559      0.797225     -2.226556
  C       0.337648     -1.545095     -3.083389
  C      -1.917747     -0.268615     -2.091229
  O      -4.632845      1.156289      0.431005
  O      -1.165664      3.841028      0.562464
  O       3.103038      3.658130      0.191490
  O       2.480271      0.900103     -2.986041
  O       0.554552     -2.389881     -3.845811
  O      -2.774265     -0.701135     -2.786490
  Pt      1.754566     -0.978820      0.485104
  Pt     -0.801948     -1.804906      0.551110
  Ni     -0.020642      0.254910      1.923852
  C       3.547103     -1.127741     -0.068592
  C       0.904422     -2.766074     -0.134887
  C      -2.194678     -2.991949      0.069079
  C      -1.584007     -0.832748      2.202242
  C      -0.397704      1.525310      3.083645
  C       1.893170      0.290756      2.114209
  O       4.663168     -1.126539     -0.391868
  O       1.233731     -3.821939     -0.568062
  O      -3.113719     -3.648244     -0.207044
  O      -2.493760     -0.952865      2.951943
  O      -0.644543      2.361071      3.846893
  O       2.734545      0.735330      2.820103
30
Coordinates from ORCA-job Pt2Ni_Pt2Ni_v2 E -4853.940214707130
  Pt     -1.742728      0.994688     -0.466011
  Pt      0.824686      1.794170     -0.568118
  Ni      0.002941     -0.268085     -1.920978
  C      -3.526901      1.163542      0.117998
  C      -0.861450      2.776235      0.127115
  C       2.237320      2.956174     -0.114780
  C       1.575968      0.797221     -2.222191
  C       0.344492     -1.554240     -3.075919
  C      -1.915871     -0.274677     -2.090577
  O      -4.620050      1.230125      0.507591
  O      -1.175613      3.838494      0.555941
  O       3.119523      3.644613      0.199616
  O       2.481209      0.901574     -2.979650
  O       0.565715     -2.402561     -3.833389
  O      -2.771257     -0.710395     -2.785253
  Pt      1.753517     -0.972594      0.484863
  Pt     -0.804876     -1.804270      0.548229
  Ni     -0.028585      0.261840      1.921196
  C       3.548391     -1.115841     -0.069504
  C       0.905167     -2.760749     -0.129807
  C      -2.191213     -2.985029      0.066207
  C      -1.588827     -0.831694      2.198973
  C      -0.410374      1.535329      3.077523
  C       1.885684      0.297386      2.115254
  O       4.647779     -1.173317     -0.442423
  O       1.237055     -3.817154     -0.559695
  O      -3.057377     -3.685153     -0.266352
  O      -2.499625     -0.953195      2.947208
  O      -0.661410      2.374466      3.835929
  O       2.726707      0.743098      2.821008
30
Coordinates from ORCA-job Pt2Ni_Pt2Ni_v2 E -4853.940255918757
  Pt     -1.742296      0.994325     -0.464901
  Pt      0.824210      1.794173     -0.567134
  Ni      0.004127     -0.270663     -1.918111
  C      -3.523733      1.156990      0.124702
  C      -0.862410      2.777448      0.124200
  C       2.238260      2.950869     -0.107535
  C       1.574659      0.798226     -2.222053
  C       0.347952     -1.561185     -3.068384
  C      -1.914673     -0.273567     -2.090820
  O      -4.611799      1.226191      0.527754
  O      -1.176841      3.839867      0.552453
  O       3.121398      3.634030      0.215691
  O       2.480204      0.902948     -2.979122
  O       0.571525     -2.413522     -3.820638
  O      -2.770319     -0.709245     -2.785263
  Pt      1.752844     -0.972365      0.483836
  Pt     -0.804908     -1.804247      0.547611
  Ni     -0.029837      0.264441      1.918612
  C       3.546040     -1.110042     -0.077129
  C       0.905471     -2.762009     -0.126731
  C      -2.194088     -2.980818      0.059086
  C      -1.587633     -0.832275      2.199331
  C      -0.413557      1.542312      3.070321
  C       1.884584      0.296284      2.115260
  O       4.641692     -1.165838     -0.461256
  O       1.237465     -3.818606     -0.556095
  O      -3.058670     -3.677565     -0.284847
  O      -2.498778     -0.953824      2.947161
  O      -0.666851      2.385446      3.823532
  O       2.725959      0.742223      2.820467
30
Coordinates from ORCA-job Pt2Ni_Pt2Ni_v2 E -4853.940300697077
  Pt     -1.741895      0.995218     -0.465981
  Pt      0.822977      1.795380     -0.568250
  Ni      0.005271     -0.272008     -1.915634
  C      -3.521593      1.148833      0.132787
  C      -0.864324      2.781208      0.118628
  C       2.240595      2.944501     -0.099209
  C       1.572255      0.801346     -2.224261
  C       0.352719     -1.568691     -3.058597
  C      -1.913211     -0.270355     -2.093584
  O      -4.603664      1.216956      0.551892
  O      -1.178957      3.843581      0.546920
  O       3.126512      3.618730      0.235047
  O       2.477451      0.906216     -2.981805
  O       0.579552     -2.426642     -3.803453
  O      -2.768380     -0.705944     -2.788742
  Pt      1.751951     -0.974050      0.484146
  Pt     -0.804202     -1.805697      0.548520
  Ni     -0.030772      0.265320      1.915781
  C       3.542652     -1.103070     -0.086361
  C       0.906365     -2.766243     -0.121700
  C      -2.196075     -2.974365      0.051243
  C      -1.585096     -0.835382      2.201669
  C      -0.417502      1.549407      3.060255
  C       1.883563      0.292360      2.116989
  O       4.634515     -1.151117     -0.482140
  O       1.238273     -3.822875     -0.551096
  O      -3.064061     -3.662018     -0.302212
  O      -2.495752     -0.956897      2.950221
  O      -0.673788      2.398080      3.806199
  O       2.724618      0.738219      2.822726
30
Coordinates from ORCA-job Pt2Ni_Pt2Ni_v2 E -4853.940337774641
  Pt     -1.741759      0.997546     -0.468149
  Pt      0.821653      1.797764     -0.570663
  Ni      0.005603     -0.270837     -1.913845
  C      -3.518984      1.143138      0.139357
  C      -0.866050      2.785877      0.112813
  C       2.242579      2.939167     -0.093134
  C       1.569515      0.805780     -2.227671
  C       0.356632     -1.573415     -3.049029
  C      -1.912356     -0.265554     -2.097201
  O      -4.598046      1.202047      0.567494
  O      -1.180688      3.848064      0.541626
  O       3.132360      3.603891      0.249756
  O       2.473340      0.910553     -2.986980
  O       0.586505     -2.436917     -3.786516
  O      -2.766306     -0.700431     -2.794419
  Pt      1.751459     -0.976690      0.486029
  Pt     -0.803566     -1.807927      0.551428
  Ni     -0.030647      0.264132      1.914184
  C       3.540114     -1.097480     -0.093835
  C       0.907119     -2.771094     -0.115910
  C      -2.199232     -2.969113      0.045963
  C      -1.582111     -0.839267      2.205813
  C      -0.420241      1.554237      3.050929
  C       1.883375      0.287412      2.119906
  O       4.628822     -1.136235     -0.499240
  O       1.238714     -3.827641     -0.545826
  O      -3.070780     -3.647711     -0.316170
  O      -2.491294     -0.960401      2.956329
  O      -0.679177      2.408389      3.789685
  O       2.723446      0.732715      2.827274
30
Coordinates from ORCA-job Pt2Ni_Pt2Ni_v2 E -4853.940364511879
  Pt     -1.742309      0.999932     -0.470968
  Pt      0.821067      1.800428     -0.573644
  Ni      0.005198     -0.267564     -1.913625
  C      -3.518340      1.141238      0.141940
  C      -0.867005      2.789068      0.108496
  C       2.244160      2.937441     -0.091256
  C       1.567757      0.809806     -2.231144
  C       0.358855     -1.573858     -3.042840
  C      -1.912211     -0.261517     -2.100661
  O      -4.596696      1.191153      0.573073
  O      -1.181676      3.851007      0.537977
  O       3.136267      3.596492      0.256560
  O       2.469439      0.914399     -2.993092
  O       0.590869     -2.441270     -3.775051
  O      -2.764336     -0.695264     -2.800882
  Pt      1.751698     -0.979362      0.488325
  Pt     -0.803325     -1.810543      0.554744
  Ni     -0.029590      0.260786      1.913947
  C       3.538698     -1.095374     -0.096949
  C       0.907443     -2.774464     -0.111756
  C      -2.201246     -2.966715      0.045120
  C      -1.579911     -0.843011      2.209827
  C      -0.421194      1.554732      3.044766
  C       1.883997      0.283176      2.122624
  O       4.625900     -1.127300     -0.506951
  O       1.238771     -3.830872     -0.542292
  O      -3.076322     -3.638785     -0.320645
  O      -2.486751     -0.963817      2.963300
  O      -0.681762      2.412756      3.778444
  O       2.722553      0.727302      2.832611
30
Coordinates from ORCA-job Pt2Ni_Pt2Ni_v2 E -4853.940382420347
  Pt     -1.743132      1.001293     -0.472458
  Pt      0.821420      1.802329     -0.575186
  Ni      0.004633     -0.264241     -1.913746
  C      -3.518381      1.141781      0.142553
  C      -0.867030      2.789896      0.106858
  C       2.244772      2.937935     -0.091091
  C       1.567308      0.812199     -2.233057
  C       0.359877     -1.572437     -3.038997
  C      -1.912400     -0.259504     -2.102409
  O      -4.597353      1.185226      0.572918
  O      -1.181892      3.851677      0.536590
  O       3.138116      3.594505      0.258277
  O       2.466709      0.916935     -2.997626
  O       0.593384     -2.442414     -3.767656
  O      -2.762790     -0.691836     -2.805554
  Pt      1.752281     -0.980802      0.489508
  Pt     -0.803905     -1.812369      0.556806
  Ni     -0.028500      0.257528      1.914222
  C       3.538656     -1.095589     -0.098102
  C       0.907050     -2.775399     -0.110070
  C      -2.202821     -2.966481      0.046120
  C      -1.579151     -0.845088      2.212312
  C      -0.421236      1.553489      3.041108
  C       1.884742      0.281156      2.124008
  O       4.625291     -1.124356     -0.509900
  O       1.238285     -3.831749     -0.540837
  O      -3.079458     -3.635735     -0.321107
  O      -2.483561     -0.965828      2.968636
  O      -0.682813      2.414101      3.771359
  O       2.721899      0.723779      2.836522
30
Coordinates from ORCA-job Pt2Ni_Pt2Ni_v2 E -4853.940395889067
  Pt     -1.743841      1.001488     -0.472687
  Pt      0.822345      1.803358     -0.575345
  Ni      0.004301     -0.261598     -1.913792
  C      -3.518734      1.142866      0.142936
  C      -0.866578      2.789139      0.107081
  C       2.244980      2.939479     -0.090755
  C       1.567811      0.813260     -2.233650
  C       0.360768     -1.571061     -3.035870
  C      -1.912493     -0.259289     -2.102858
  O      -4.598001      1.184205      0.572862
  O      -1.181858      3.850864      0.536593
  O       3.138218      3.595864      0.259323
  O       2.465035      0.918557     -3.000538
  O       0.595838     -2.443263     -3.761356
  O      -2.761400     -0.690031     -2.808614
  Pt      1.752801     -0.981211      0.489247
  Pt     -0.804870     -1.813491      0.557340
  Ni     -0.027642      0.254837      1.914267
  C       3.538514     -1.096759     -0.099205
  C       0.906308     -2.774894     -0.110375
  C      -2.203905     -2.967259      0.046942
  C      -1.579316     -0.846003      2.213307
  C      -0.421180      1.552163      3.038022
  C       1.885352      0.280751      2.124027
  O       4.624935     -1.124828     -0.511652
  O       1.237670     -3.831280     -0.540923
  O      -3.081292     -3.635461     -0.320488
  O      -2.481365     -0.967082      2.972219
  O      -0.683813      2.415074      3.765171
  O       2.721409      0.721602      2.838769
30
Coordinates from ORCA-job Pt2Ni_Pt2Ni_v2 E -4853.940406485621
  Pt     -1.744017      1.000821     -0.471624
  Pt      0.823342      1.803528     -0.574114
  Ni      0.004374     -0.260092     -1.913338
  C      -3.518523      1.143515      0.144303
  C      -0.865984      2.787811      0.108612
  C       2.244660      2.940731     -0.089042
  C       1.568740      0.813490     -2.233040
  C       0.362049     -1.571007     -3.032380
  C      -1.912299     -0.260175     -2.102155
  O      -4.597458      1.185793      0.575037
  O      -1.181803      3.849608      0.537475
  O       3.137103      3.597859      0.261741
  O       2.464252      0.919833     -3.001613
  O       0.598997     -2.445682     -3.754315
  O      -2.760316     -0.689364     -2.809753
  Pt      1.752817     -0.980858      0.487715
  Pt     -0.805950     -1.813758      0.556517
  Ni     -0.027294      0.253277      1.913842
  C       3.538175     -1.097907     -0.101667
  C       0.905314     -2.773911     -0.111938
  C      -2.204642     -2.967836      0.046397
  C      -1.580020     -0.846024      2.213057
  C      -0.421591      1.552147      3.034617
  C       1.885561      0.281332      2.122954
  O       4.624195     -1.126799     -0.515201
  O       1.236911     -3.830451     -0.541878
  O      -3.081844     -3.636089     -0.321459
  O      -2.480226     -0.967852      2.973846
  O      -0.685645      2.417630      3.758231
  O       2.721120      0.720431      2.839173
30
Coordinates from ORCA-job Pt2Ni_Pt2Ni_v2 E -4853.940414254768
  Pt     -1.743584      0.999885     -0.470072
  Pt      0.823935      1.803226     -0.572386
  Ni      0.004747     -0.259483     -1.912797
  C      -3.517875      1.143636      0.146204
  C      -0.865603      2.786906      0.110600
  C       2.244079      2.941672     -0.086637
  C       1.569603      0.813566     -2.231899
  C       0.363649     -1.572063     -3.029114
  C      -1.911889     -0.261265     -2.101003
  O      -4.595952      1.189064      0.578780
  O      -1.181917      3.848858      0.538672
  O       3.135200      3.600161      0.264994
  O       2.464220      0.921183     -3.001247
  O       0.602564     -2.449246     -3.747427
  O      -2.759764     -0.689265     -2.809408
  Pt      1.752301     -0.980341      0.485678
  Pt     -0.806615     -1.813526      0.555075
  Ni     -0.027278      0.252604      1.913263
  C       3.537135     -1.098883     -0.104689
  C       0.904482     -2.773393     -0.113978
  C      -2.204898     -2.968259      0.044888
  C      -1.580665     -0.845865      2.212171
  C      -0.422316      1.553228      3.031372
  C       1.885532      0.281985      2.121372
  O       4.622682     -1.129480     -0.519358
  O       1.236318     -3.830145     -0.543182
  O      -3.081580     -3.637078     -0.323231
  O      -2.479861     -0.968704      2.973901
  O      -0.687945      2.421320      3.751353
  O       2.721295      0.719703      2.838105
30
Coordinates from ORCA-job Pt2Ni_Pt2Ni_v2 E -4853.940420294556
  Pt     -1.742787      0.999328     -0.468617
  Pt      0.824000      1.802998     -0.570792
  Ni      0.005187     -0.259103     -1.912488
  C      -3.516963      1.143727      0.148014
  C      -0.865519      2.786879      0.112459
  C       2.243198      2.942415     -0.084354
  C       1.570080      0.814159     -2.230791
  C       0.365345     -1.573516     -3.026393
  C      -1.911455     -0.261724     -2.099902
  O      -4.594280      1.192331      0.582090
  O      -1.182166      3.849023      0.539804
  O       3.133031      3.602339      0.267807
  O       2.464523      0.923089     -3.000188
  O       0.606079     -2.453155     -3.741154
  O      -2.759802     -0.688986     -2.808216
  Pt      1.751448     -0.980211      0.483885
  Pt     -0.806871     -1.813220      0.553785
  Ni     -0.027399      0.252254      1.912984
  C       3.536075     -1.099950     -0.107604
  C       0.903793     -2.773717     -0.115772
  C      -2.204749     -2.968545      0.043334
  C      -1.581002     -0.846054      2.211330
  C      -0.423161      1.554813      3.028730
  C       1.885424      0.282003      2.119919
  O       4.621156     -1.132456     -0.523351
  O       1.235747     -3.830701     -0.544308
  O      -3.080623     -3.638341     -0.324893
  O      -2.479967     -0.969958      2.973193
  O      -0.690284      2.425450      3.745141
  O       2.721938      0.718832      2.836345
30
Coordinates from ORCA-job Pt2Ni_Pt2Ni_v2 E -4853.940426278279
  Pt     -1.741865      0.999385     -0.467449
  Pt      0.823691      1.803273     -0.569556
  Ni      0.005580     -0.258244     -1.912730
  C      -3.516130      1.144268      0.149348
  C      -0.865697      2.787681      0.114160
  C       2.242167      2.943730     -0.082649
  C       1.570205      0.815720     -2.229966
  C       0.367213     -1.574769     -3.024188
  C      -1.911081     -0.261255     -2.099063
  O      -4.593055      1.195631      0.583998
  O      -1.182568      3.850027      0.540842
  O       3.130706      3.605352      0.269505
  O       2.464948      0.926003     -2.998935
  O       0.609782     -2.457095     -3.735046
  O      -2.760310     -0.688087     -2.806698
  Pt      1.750481     -0.980736      0.482407
  Pt     -0.806830     -1.813256      0.552880
  Ni     -0.027374      0.251538      1.913278
  C       3.534804     -1.101630     -0.109996
  C       0.903185     -2.774855     -0.117324
  C      -2.204387     -2.969307      0.042321
  C      -1.580919     -0.846989      2.210858
  C      -0.423929      1.556351      3.026618
  C       1.885489      0.281054      2.118670
  O       4.619566     -1.136309     -0.526336
  O       1.235144     -3.832086     -0.545245
  O      -3.079375     -3.640461     -0.325445
  O      -2.480115     -0.972013      2.972394
  O      -0.692495      2.429778      3.739122
  O       2.723164      0.717301      2.834222
30
Coordinates from ORCA-job Pt2Ni_Pt2Ni_v2 E -4853.940431843050
  Pt     -1.741134      1.000212     -0.466660
  Pt      0.823219      1.804303     -0.568763
  Ni      0.005815     -0.256561     -1.913617
  C      -3.515623      1.145523      0.149805
  C      -0.866042      2.789049      0.115593
  C       2.241031      2.945776     -0.081932
  C       1.569995      0.818364     -2.229587
  C       0.369076     -1.575301     -3.022679
  C      -1.910856     -0.259717     -2.098606
  O      -4.592846      1.198402      0.583435
  O      -1.183047      3.851573      0.541719
  O       3.128521      3.609201      0.269345
  O       2.465310      0.929864     -2.997862
  O       0.613333     -2.460450     -3.729434
  O      -2.761130     -0.686462     -2.805184
  Pt      1.749667     -0.982041      0.481391
  Pt     -0.806765     -1.813877      0.552520
  Ni     -0.027115      0.250126      1.914293
  C       3.533946     -1.104095     -0.111545
  C       0.902513     -2.776561     -0.118470
  C      -2.204004     -2.970654      0.042380
  C      -1.580482     -0.848746      2.210968
  C      -0.424471      1.557349      3.025258
  C       1.885799      0.279043      2.117822
  O       4.618651     -1.140836     -0.527794
  O       1.234346     -3.834032     -0.545869
  O      -3.078099     -3.643517     -0.324243
  O      -2.480179     -0.974721      2.971907
  O      -0.694223      2.433725      3.733677
  O       2.724790      0.715061      2.832133
30
Coordinates from ORCA-job Pt2Ni_Pt2Ni_v2 E -4853.940435909552
  Pt     -1.740969      1.001411     -0.466339
  Pt      0.822956      1.805796     -0.568501
  Ni      0.005835     -0.254490     -1.914803
  C      -3.515801      1.146995      0.149239
  C      -0.866366      2.790220      0.116439
  C       2.240393      2.948105     -0.082382
  C       1.569655      0.821153     -2.229710
  C       0.370364     -1.574787     -3.022235
  C      -1.910816     -0.257780     -2.098614
  O      -4.593914      1.199764      0.580622
  O      -1.183457      3.852817      0.542269
  O       3.127447      3.612876      0.267385
  O       2.465504      0.933217     -2.997352
  O       0.615669     -2.462039     -3.725935
  O      -2.761772     -0.684830     -2.804257
  Pt      1.749383     -0.983594      0.480909
  Pt     -0.806872     -1.814954      0.552623
  Ni     -0.026640      0.248352      1.915584
  C       3.533584     -1.106506     -0.111743
  C       0.901941     -2.777972     -0.119031
  C      -2.203985     -2.972319      0.043498
  C      -1.579888     -0.850682      2.211567
  C      -0.424517      1.557326      3.024918
  C       1.886305      0.276760      2.117496
  O       4.618587     -1.144548     -0.527045
  O       1.233605     -3.835595     -0.546124
  O      -3.077622     -3.646600     -0.321534
  O      -2.480024     -0.977006      2.972000
  O      -0.694771      2.435938      3.730321
  O       2.726186      0.712970      2.830731
