30
Coordinates from ORCA-job Pt3_Pt2Ni E -3465.224143074302
  Ni     -1.629368      0.974027     -0.495391
  Pt      0.799454      1.816000     -0.625143
  Pt     -0.011638     -0.271911     -2.062129
  C      -3.264485      1.208611      0.094606
  C      -0.948364      2.697454      0.021856
  C       2.084985      3.098280     -0.134403
  C       1.721074      0.858870     -2.222706
  C       0.251348     -1.599479     -3.367937
  C      -2.071403     -0.183182     -1.963837
  O      -4.333368      1.379730      0.458371
  O      -1.334465      3.731676      0.399253
  O       2.868627      3.884271      0.155027
  O       2.652731      0.975001     -2.918193
  O       0.409694     -2.402074     -4.171993
  O      -3.003382     -0.554270     -2.559490
  Pt      1.792891     -1.038762      0.573049
  Pt     -0.783645     -1.841591      0.585510
  Pt     -0.031073      0.283560      2.059248
  C       3.568521     -1.286316      0.024099
  C       0.940295     -2.817134     -0.068153
  C      -2.092122     -3.077054      0.052676
  C      -1.752640     -0.871640      2.137272
  C      -0.432801      1.613567      3.320945
  C       2.051433      0.332019      2.111056
  O       4.656292     -1.448620     -0.298243
  O       1.261879     -3.862190     -0.478160
  O      -2.887890     -3.838130     -0.265639
  O      -2.716378     -0.982171      2.789835
  O      -0.675401      2.418033      4.100524
  O       2.909199      0.803425      2.748088
30
Coordinates from ORCA-job Pt3_Pt2Ni E -3465.230007771672
  Ni     -1.633324      0.972766     -0.491426
  Pt      0.805422      1.821862     -0.618184
  Pt     -0.011935     -0.282253     -2.066152
  C      -3.269725      1.208213      0.098229
  C      -0.951911      2.698794      0.025015
  C       2.097836      3.113382     -0.120609
  C       1.728343      0.858521     -2.226079
  C       0.250201     -1.620925     -3.379650
  C      -2.075909     -0.184837     -1.962355
  O      -4.350556      1.380289      0.467552
  O      -1.343209      3.745774      0.404479
  O       2.889841      3.904909      0.177601
  O       2.669670      0.977640     -2.931012
  O       0.409830     -2.436207     -4.187529
  O      -3.018881     -0.558251     -2.566156
  Pt      1.812200     -1.042348      0.568305
  Pt     -0.793994     -1.852572      0.583412
  Pt     -0.034606      0.292569      2.070844
  C       3.598059     -1.285368      0.007648
  C       0.943062     -2.831131     -0.074905
  C      -2.114974     -3.089022      0.043240
  C      -1.762409     -0.872101      2.143544
  C      -0.443596      1.634927      3.334447
  C       2.062120      0.339117      2.119660
  O       4.695444     -1.441498     -0.326356
  O       1.266289     -3.888433     -0.490931
  O      -2.922176     -3.851483     -0.284723
  O      -2.737282     -0.983059      2.802753
  O      -0.692455      2.453116      4.114908
  O       2.928626      0.817610      2.764429
30
Coordinates from ORCA-job Pt3_Pt2Ni E -3465.230764913344
  Ni     -1.628634      0.968833     -0.488368
  Pt      0.807730      1.817595     -0.615111
  Pt     -0.009173     -0.285379     -2.061877
  C      -3.264721      1.201752      0.104966
  C      -0.943605      2.694239      0.026568
  C       2.096547      3.096135     -0.115287
  C       1.717304      0.854231     -2.213605
  C       0.255681     -1.620839     -3.362598
  C      -2.067459     -0.189570     -1.960257
  O      -4.349682      1.370172      0.481822
  O      -1.332876      3.748113      0.409580
  O       2.888757      3.888263      0.199114
  O       2.664649      0.972831     -2.920888
  O       0.410401     -2.450019     -4.164186
  O      -3.013180     -0.568799     -2.569035
  Pt      1.795567     -1.032295      0.562525
  Pt     -0.788276     -1.842074      0.575745
  Pt     -0.032241      0.294189      2.057113
  C       3.571268     -1.275403      0.007810
  C       0.934088     -2.803338     -0.071746
  C      -2.100654     -3.075472      0.038051
  C      -1.747031     -0.868565      2.131245
  C      -0.435544      1.630156      3.316337
  C       2.041628      0.332538      2.100232
  O       4.672432     -1.430217     -0.330979
  O       1.261091     -3.866067     -0.487857
  O      -2.909424     -3.841872     -0.293916
  O      -2.725020     -0.982634      2.796666
  O      -0.683424      2.453242      4.099136
  O       2.913800      0.810254      2.748799
30
Coordinates from ORCA-job Pt3_Pt2Ni E -3465.231034162124
  Ni     -1.631198      0.966782     -0.484122
  Pt      0.808050      1.818496     -0.610075
  Pt     -0.011044     -0.290384     -2.060656
  C      -3.267613      1.199592      0.109635
  C      -0.945151      2.692720      0.029190
  C       2.096888      3.097190     -0.106963
  C       1.714138      0.854594     -2.212604
  C       0.252891     -1.628458     -3.360194
  C      -2.068913     -0.191125     -1.957277
  O      -4.350831      1.366591      0.487666
  O      -1.333612      3.746336      0.410577
  O       2.911077      3.871197      0.191528
  O       2.659194      0.975135     -2.921395
  O       0.438327     -2.449757     -4.161609
  O      -3.013356     -0.569406     -2.566656
  Pt      1.804897     -1.033873      0.559763
  Pt     -0.796406     -1.845748      0.575440
  Pt     -0.037346      0.298972      2.062595
  C       3.580879     -1.270967     -0.003844
  C       0.934279     -2.808548     -0.074011
  C      -2.111294     -3.075144      0.034306
  C      -1.752654     -0.867702      2.133382
  C      -0.443049      1.638195      3.317632
  C       2.044934      0.334889      2.103873
  O       4.680336     -1.417613     -0.347646
  O       1.260279     -3.870833     -0.490937
  O      -2.919607     -3.837739     -0.303067
  O      -2.730188     -0.981462      2.798320
  O      -0.690336      2.464869      4.094935
  O       2.916431      0.813199      2.752210
30
Coordinates from ORCA-job Pt3_Pt2Ni E -3465.230782494303
  Ni     -1.627436      0.964419     -0.482733
  Pt      0.817701      1.818606     -0.606817
  Pt     -0.003820     -0.297849     -2.062160
  C      -3.264684      1.197022      0.111592
  C      -0.939726      2.691451      0.027181
  C       2.112424      3.094431     -0.099363
  C       1.719254      0.853320     -2.212984
  C       0.265480     -1.641212     -3.359866
  C      -2.062803     -0.192159     -1.958531
  O      -4.345220      1.361555      0.491476
  O      -1.326384      3.744951      0.405434
  O       2.863761      3.903393      0.258415
  O       2.662459      0.974977     -2.922247
  O       0.367961     -2.491642     -4.142988
  O      -3.004607     -0.568940     -2.569645
  Pt      1.820139     -1.036685      0.556372
  Pt     -0.800786     -1.849000      0.571199
  Pt     -0.038335      0.305606      2.064919
  C       3.597758     -1.266884     -0.016383
  C       0.938700     -2.814691     -0.076490
  C      -2.119779     -3.074730      0.023692
  C      -1.754262     -0.865605      2.131732
  C      -0.447014      1.651399      3.315320
  C       2.052220      0.335817      2.107435
  O       4.691016     -1.411682     -0.374405
  O       1.262430     -3.876774     -0.493376
  O      -2.929948     -3.828911     -0.321803
  O      -2.731276     -0.978725      2.795539
  O      -0.696852      2.484006      4.082695
  O       2.921627      0.814537      2.756787
30
Coordinates from ORCA-job Pt3_Pt2Ni E -3465.231239872750
  Ni     -1.629802      0.963190     -0.479723
  Pt      0.813610      1.818502     -0.605679
  Pt     -0.007740     -0.297231     -2.060431
  C      -3.266396      1.193482      0.117799
  C      -0.942446      2.690644      0.029331
  C       2.107366      3.092943     -0.094690
  C       1.713610      0.854134     -2.211599
  C       0.260231     -1.642830     -3.355222
  C      -2.065573     -0.192779     -1.955917
  O      -4.347183      1.355951      0.500824
  O      -1.329341      3.744591      0.408884
  O       2.903800      3.872300      0.233043
  O       2.657877      0.975323     -2.920777
  O       0.420524     -2.481574     -4.142631
  O      -3.008269     -0.570734     -2.566649
  Pt      1.808354     -1.031726      0.554696
  Pt     -0.799277     -1.844980      0.570184
  Pt     -0.038350      0.304766      2.060610
  C       3.584305     -1.263031     -0.016393
  C       0.933547     -2.805907     -0.075511
  C      -2.116928     -3.072291      0.023192
  C      -1.750580     -0.865971      2.130557
  C      -0.445034      1.650090      3.312203
  C       2.043959      0.334336      2.101931
  O       4.680272     -1.401766     -0.371476
  O       1.258935     -3.868071     -0.492223
  O      -2.929705     -3.825525     -0.321447
  O      -2.726954     -0.980582      2.796280
  O      -0.697703      2.482967      4.079803
  O       2.914888      0.811778      2.751030
30
Coordinates from ORCA-job Pt3_Pt2Ni E -3465.231318181729
  Ni     -1.630134      0.961080     -0.476475
  Pt      0.814234      1.817761     -0.603752
  Pt     -0.006847     -0.299103     -2.058610
  C      -3.266688      1.189056      0.123991
  C      -0.942597      2.689582      0.029763
  C       2.107774      3.087650     -0.088909
  C       1.711307      0.854964     -2.210809
  C       0.262622     -1.646616     -3.347892
  C      -2.064737     -0.193620     -1.954361
  O      -4.346940      1.348581      0.510588
  O      -1.328644      3.744153      0.409168
  O       2.911205      3.859382      0.240578
  O       2.655706      0.976301     -2.920201
  O       0.437006     -2.486489     -4.131418
  O      -3.006774     -0.572597     -2.565925
  Pt      1.806214     -1.029123      0.553200
  Pt     -0.800289     -1.842473      0.568550
  Pt     -0.039650      0.307005      2.058369
  C       3.580438     -1.256536     -0.021276
  C       0.932495     -2.803148     -0.075416
  C      -2.117821     -3.066886      0.019713
  C      -1.749953     -0.865194      2.130024
  C      -0.447162      1.653509      3.306268
  C       2.041919      0.334475      2.100979
  O       4.671869     -1.401188     -0.388623
  O       1.258140     -3.865220     -0.492951
  O      -2.930593     -3.817792     -0.330754
  O      -2.725954     -0.980598      2.796652
  O      -0.699246      2.490923      4.069466
  O       2.913101      0.812160      2.750062
30
Coordinates from ORCA-job Pt3_Pt2Ni E -3465.231308621011
  Ni     -1.630728      0.955764     -0.468961
  Pt      0.817425      1.813934     -0.601593
  Pt     -0.005508     -0.303864     -2.057677
  C      -3.266759      1.177770      0.141802
  C      -0.941175      2.687041      0.028165
  C       2.112766      3.070382     -0.074949
  C       1.704838      0.856574     -2.214230
  C       0.267336     -1.657326     -3.333279
  C      -2.064130     -0.192797     -1.953119
  O      -4.344818      1.329230      0.539498
  O      -1.323692      3.743399      0.407306
  O       2.941276      3.814178      0.258534
  O       2.649515      0.978090     -2.923941
  O       0.447616     -2.512096     -4.099954
  O      -3.004811     -0.573089     -2.566633
  Pt      1.799272     -1.028298      0.548322
  Pt     -0.803567     -1.838350      0.562936
  Pt     -0.041437      0.309200      2.052240
  C       3.567203     -1.249260     -0.040032
  C       0.927513     -2.800914     -0.076236
  C      -2.122661     -3.053772      0.007556
  C      -1.748123     -0.866094      2.129595
  C      -0.449108      1.660655      3.290411
  C       2.038365      0.327703      2.099470
  O       4.673221     -1.323515     -0.385918
  O       1.252086     -3.862615     -0.496819
  O      -2.938381     -3.794469     -0.359214
  O      -2.722740     -0.983107      2.798869
  O      -0.701685      2.511060      4.039785
  O       2.910893      0.804589      2.748065
30
Coordinates from ORCA-job Pt3_Pt2Ni E -3465.231562280585
  Ni     -1.631075      0.953164     -0.464674
  Pt      0.818683      1.815571     -0.601090
  Pt     -0.002652     -0.304666     -2.056982
  C      -3.267063      1.169178      0.152946
  C      -0.943240      2.687921      0.024800
  C       2.118292      3.067583     -0.064466
  C       1.703359      0.862459     -2.218259
  C       0.275179     -1.667329     -3.325862
  C      -2.062679     -0.191297     -1.953242
  O      -4.343095      1.314208      0.557456
  O      -1.325444      3.744401      0.402363
  O       2.940210      3.807848      0.292122
  O       2.647625      0.984286     -2.927823
  O       0.470466     -2.529900     -4.079885
  O      -3.001811     -0.572491     -2.567617
  Pt      1.798055     -1.024968      0.549863
  Pt     -0.803133     -1.836367      0.562410
  Pt     -0.041559      0.312992      2.051273
  C       3.565685     -1.236728     -0.047078
  C       0.928854     -2.800200     -0.072098
  C      -2.124034     -3.049053     -0.001544
  C      -1.746362     -0.866761      2.132486
  C      -0.451274      1.672743      3.282790
  C       2.037701      0.327598      2.103746
  O       4.652937     -1.350038     -0.438140
  O       1.253715     -3.860968     -0.493494
  O      -2.945465     -3.779294     -0.375928
  O      -2.719733     -0.985101      2.802573
  O      -0.711501      2.530394      4.020943
  O       2.909356      0.804815      2.752408
30
Coordinates from ORCA-job Pt3_Pt2Ni E -3465.231651784066
  Ni     -1.630361      0.951150     -0.462328
  Pt      0.819346      1.815658     -0.601944
  Pt     -0.000176     -0.303632     -2.056820
  C      -3.266089      1.162197      0.161057
  C      -0.944044      2.688644      0.020542
  C       2.120728      3.062268     -0.055819
  C       1.703036      0.868198     -2.223735
  C       0.280888     -1.672871     -3.318450
  C      -2.060838     -0.188710     -1.955076
  O      -4.340567      1.302287      0.571057
  O      -1.325679      3.745540      0.396865
  O       2.941579      3.797224      0.313935
  O       2.646653      0.991060     -2.933699
  O       0.466410     -2.546649     -4.061929
  O      -2.998721     -0.570392     -2.570651
  Pt      1.800023     -1.025641      0.552362
  Pt     -0.803525     -1.836085      0.563358
  Pt     -0.042264      0.313462      2.052008
  C       3.566092     -1.229021     -0.054856
  C       0.930608     -2.803405     -0.068619
  C      -2.127378     -3.042385     -0.008467
  C      -1.745891     -0.868745      2.135578
  C      -0.455948      1.680258      3.275011
  C       2.039224      0.325222      2.109711
  O       4.646393     -1.345995     -0.463368
  O       1.254562     -3.863631     -0.491591
  O      -2.949020     -3.767016     -0.392851
  O      -2.718738     -0.987596      2.805852
  O      -0.716280      2.545456      4.004122
  O       2.909976      0.803151      2.758742
30
Coordinates from ORCA-job Pt3_Pt2Ni E -3465.231520605342
  Ni     -1.628021      0.948128     -0.459254
  Pt      0.821408      1.811116     -0.609216
  Pt     -0.000970     -0.304071     -2.058658
  C      -3.261500      1.153504      0.177136
  C      -0.941426      2.689746      0.009052
  C       2.130060      3.045937     -0.049209
  C       1.700580      0.871646     -2.239409
  C       0.278583     -1.687719     -3.306772
  C      -2.061817     -0.182927     -1.958025
  O      -4.332153      1.287227      0.598450
  O      -1.320476      3.748147      0.382675
  O       2.903017      3.801000      0.378470
  O       2.641986      0.994167     -2.951777
  O       0.510246     -2.560547     -4.038162
  O      -2.999911     -0.563367     -2.573421
  Pt      1.801301     -1.033641      0.554235
  Pt     -0.806424     -1.838152      0.567301
  Pt     -0.039260      0.311820      2.053122
  C       3.562434     -1.227025     -0.074430
  C       0.927572     -2.814569     -0.062759
  C      -2.138820     -3.030313     -0.017431
  C      -1.743589     -0.871462      2.144391
  C      -0.455396      1.694446      3.259064
  C       2.045272      0.315415      2.116339
  O       4.641298     -1.319070     -0.492321
  O       1.247616     -3.874615     -0.488260
  O      -2.965674     -3.741861     -0.414250
  O      -2.714864     -0.988570      2.816374
  O      -0.717229      2.572201      3.972138
  O       2.916157      0.793406      2.764602
30
Coordinates from ORCA-job Pt3_Pt2Ni E -3465.231749473858
  Ni     -1.627031      0.946718     -0.458539
  Pt      0.819705      1.814162     -0.607589
  Pt      0.002785     -0.299585     -2.058324
  C      -3.260591      1.145911      0.180699
  C      -0.944935      2.690723      0.007250
  C       2.126417      3.047744     -0.037197
  C       1.701842      0.879773     -2.239647
  C       0.287282     -1.687008     -3.302315
  C      -2.058203     -0.180352     -1.960993
  O      -4.330610      1.274686      0.604994
  O      -1.326624      3.748388      0.380331
  O       2.943492      3.770404      0.363557
  O       2.643404      1.004622     -2.951333
  O       0.468748     -2.580192     -4.023190
  O      -2.995399     -0.561106     -2.577587
  Pt      1.801449     -1.030619      0.557756
  Pt     -0.803043     -1.838846      0.566887
  Pt     -0.040126      0.311327      2.055426
  C       3.561763     -1.217230     -0.074363
  C       0.931445     -2.812625     -0.060668
  C      -2.134720     -3.028169     -0.026486
  C      -1.742534     -0.875775      2.145629
  C      -0.460589      1.698346      3.255362
  C       2.042986      0.316002      2.122261
  O       4.637384     -1.308635     -0.500646
  O       1.252808     -3.871800     -0.487188
  O      -2.965099     -3.734016     -0.426085
  O      -2.714093     -0.994760      2.816846
  O      -0.730679      2.577700      3.963344
  O       2.912768      0.794212      2.771805
30
Coordinates from ORCA-job Pt3_Pt2Ni E -3465.231770684649
  Ni     -1.626587      0.947044     -0.459279
  Pt      0.819341      1.814350     -0.607080
  Pt      0.002017     -0.299751     -2.058365
  C      -3.259588      1.146636      0.179222
  C      -0.944684      2.690435      0.008152
  C       2.124528      3.048356     -0.037664
  C       1.701978      0.877888     -2.237265
  C       0.285100     -1.686105     -3.302592
  C      -2.058330     -0.180943     -1.960621
  O      -4.329853      1.276005      0.603047
  O      -1.326924      3.748079      0.381523
  O       2.944402      3.770425      0.358546
  O       2.643573      1.002817     -2.949305
  O       0.471336     -2.576399     -4.025928
  O      -2.996109     -0.561537     -2.576907
  Pt      1.800720     -1.029957      0.556658
  Pt     -0.802933     -1.838001      0.566982
  Pt     -0.040422      0.310722      2.054827
  C       3.561239     -1.218591     -0.072450
  C       0.930665     -2.810168     -0.061861
  C      -2.134988     -3.027387     -0.022670
  C      -1.742067     -0.874993      2.144318
  C      -0.461839      1.694951      3.256225
  C       2.041698      0.316623      2.119423
  O       4.638126     -1.309526     -0.496144
  O       1.252507     -3.869687     -0.487828
  O      -2.962415     -3.736340     -0.423270
  O      -2.713964     -0.993752      2.815588
  O      -0.728445      2.574473      3.965544
  O       2.911915      0.794332      2.769171
30
Coordinates from ORCA-job Pt3_Pt2Ni E -3465.231790376821
  Ni     -1.624625      0.946557     -0.459977
  Pt      0.819286      1.814471     -0.607987
  Pt      0.002054     -0.298845     -2.059163
  C      -3.256169      1.143761      0.181203
  C      -0.944544      2.690741      0.005762
  C       2.123733      3.046714     -0.034557
  C       1.702820      0.877686     -2.237416
  C       0.283682     -1.687744     -3.300190
  C      -2.057691     -0.179521     -1.961992
  O      -4.325632      1.271241      0.607692
  O      -1.328392      3.748219      0.378413
  O       2.943441      3.767281      0.364598
  O       2.643809      1.003269     -2.950326
  O       0.472391     -2.579003     -4.021633
  O      -2.996533     -0.558966     -2.577653
  Pt      1.800848     -1.030550      0.556748
  Pt     -0.802234     -1.838864      0.568059
  Pt     -0.039434      0.309465      2.055917
  C       3.560324     -1.217897     -0.073998
  C       0.930284     -2.809984     -0.062181
  C      -2.136085     -3.024872     -0.023231
  C      -1.740791     -0.876135      2.145734
  C      -0.462979      1.695793      3.253556
  C       2.041848      0.316084      2.119057
  O       4.637048     -1.304611     -0.499190
  O       1.252401     -3.869546     -0.488263
  O      -2.965933     -3.730583     -0.424652
  O      -2.712903     -0.994447      2.817048
  O      -0.732480      2.577149      3.959570
  O       2.912456      0.793135      2.769052
30
Coordinates from ORCA-job Pt3_Pt2Ni E -3465.231817022302
  Ni     -1.620091      0.945576     -0.461852
  Pt      0.819503      1.815182     -0.609942
  Pt      0.002652     -0.296708     -2.061286
  C      -3.248150      1.136756      0.185779
  C      -0.944590      2.691724      0.000074
  C       2.123141      3.044623     -0.027262
  C       1.705761      0.877271     -2.237511
  C       0.281628     -1.691922     -3.296477
  C      -2.056159     -0.175966     -1.965566
  O      -4.315566      1.259284      0.618764
  O      -1.332286      3.748588      0.370720
  O       2.940772      3.762310      0.380919
  O       2.645303      1.004468     -2.952145
  O       0.469031     -2.588107     -4.011953
  O      -2.997153     -0.552499     -2.579888
  Pt      1.801648     -1.031877      0.557417
  Pt     -0.800703     -1.840793      0.570794
  Pt     -0.037387      0.306511      2.058590
  C       3.559632     -1.215685     -0.077986
  C       0.929988     -2.810359     -0.063163
  C      -2.139527     -3.019294     -0.024036
  C      -1.738325     -0.878989      2.149349
  C      -0.466644      1.697934      3.248105
  C       2.042962      0.315539      2.119077
  O       4.635030     -1.295181     -0.507978
  O       1.252784     -3.869771     -0.489434
  O      -2.974163     -3.717436     -0.428647
  O      -2.710792     -0.996300      2.820457
  O      -0.742546      2.584109      3.945539
  O       2.914246      0.791012      2.769541
30
Coordinates from ORCA-job Pt3_Pt2Ni E -3465.231827641365
  Ni     -1.617904      0.945076     -0.462797
  Pt      0.820240      1.815724     -0.610238
  Pt      0.003458     -0.296339     -2.062388
  C      -3.244037      1.132899      0.188216
  C      -0.944727      2.692121     -0.002201
  C       2.123173      3.044323     -0.024389
  C       1.708104      0.875936     -2.236004
  C       0.281494     -1.693276     -3.295717
  C      -2.055381     -0.174578     -1.967205
  O      -4.310325      1.252299      0.624949
  O      -1.334499      3.748596      0.367175
  O       2.939210      3.760924      0.388829
  O       2.647194      1.003798     -2.951088
  O       0.466221     -2.592653     -4.007842
  O      -2.997386     -0.549381     -2.580914
  Pt      1.801790     -1.032003      0.557413
  Pt     -0.800153     -1.841624      0.571772
  Pt     -0.036554      0.305555      2.059785
  C       3.559329     -1.214244     -0.079885
  C       0.929916     -2.810302     -0.064862
  C      -2.141102     -3.017241     -0.024438
  C      -1.737655     -0.880303      2.151275
  C      -0.468359      1.699162      3.246049
  C       2.043775      0.316572      2.118636
  O       4.633609     -1.292920     -0.512732
  O       1.253419     -3.869359     -0.491368
  O      -2.979439     -3.710500     -0.429753
  O      -2.710242     -0.997235      2.822186
  O      -0.748746      2.587712      3.938640
  O       2.915577      0.791262      2.768895
30
Coordinates from ORCA-job Pt3_Pt2Ni E -3465.231835997370
  Ni     -1.616480      0.944690     -0.463507
  Pt      0.821185      1.816299     -0.609934
  Pt      0.004322     -0.296590     -2.063329
  C      -3.240705      1.129023      0.191028
  C      -0.945043      2.692364     -0.003531
  C       2.123931      3.044843     -0.022524
  C       1.710629      0.873853     -2.233442
  C       0.282302     -1.694197     -3.296363
  C      -2.054908     -0.173755     -1.968428
  O      -4.305737      1.244736      0.631928
  O      -1.336258      3.748603      0.364501
  O       2.938655      3.760453      0.395132
  O       2.649744      1.002033     -2.948348
  O       0.464096     -2.596652     -4.005406
  O      -2.997389     -0.547046     -2.582016
  Pt      1.801327     -1.031614      0.557109
  Pt     -0.800343     -1.841737      0.572498
  Pt     -0.036491      0.305026      2.060395
  C       3.558935     -1.212790     -0.081642
  C       0.929522     -2.809899     -0.067245
  C      -2.143245     -3.015254     -0.024054
  C      -1.737590     -0.881281      2.153065
  C      -0.470320      1.700166      3.244448
  C       2.044333      0.318352      2.117734
  O       4.632358     -1.292214     -0.516280
  O       1.253772     -3.868416     -0.494163
  O      -2.983714     -3.704823     -0.431162
  O      -2.710109     -0.998076      2.823838
  O      -0.753504      2.591443      3.932330
  O       2.916724      0.792462      2.767366
30
Coordinates from ORCA-job Pt3_Pt2Ni E -3465.231840743655
  Ni     -1.616517      0.944718     -0.463793
  Pt      0.821602      1.816523     -0.609466
  Pt      0.004703     -0.296987     -2.063621
  C      -3.239885      1.127256      0.192541
  C      -0.945286      2.692380     -0.003361
  C       2.124267      3.045469     -0.023248
  C       1.711967      0.872269     -2.231436
  C       0.283363     -1.693326     -3.297716
  C      -2.054902     -0.173870     -1.968738
  O      -4.304233      1.240719      0.635802
  O      -1.336584      3.748747      0.363970
  O       2.938856      3.761152      0.394700
  O       2.651687      1.000132     -2.945571
  O       0.464504     -2.596080     -4.006627
  O      -2.997201     -0.546644     -2.582763
  Pt      1.800539     -1.031194      0.556824
  Pt     -0.800966     -1.841541      0.572715
  Pt     -0.036996      0.305102      2.060551
  C       3.558508     -1.212777     -0.081545
  C       0.928900     -2.809376     -0.068910
  C      -2.144155     -3.014985     -0.023755
  C      -1.737996     -0.881664      2.154099
  C      -0.470877      1.700734      3.244260
  C       2.044222      0.319781      2.116930
  O       4.632035     -1.294088     -0.515462
  O       1.253448     -3.867478     -0.496394
  O      -2.985295     -3.703524     -0.431228
  O      -2.710368     -0.998659      2.824923
  O      -0.754324      2.593163      3.930533
  O       2.916985      0.794047      2.765785
30
Coordinates from ORCA-job Pt3_Pt2Ni E -3465.231847343068
  Ni     -1.617199      0.944942     -0.464173
  Pt      0.821751      1.816790     -0.609034
  Pt      0.004960     -0.297254     -2.063969
  C      -3.239358      1.124397      0.195450
  C      -0.945746      2.692450     -0.002983
  C       2.124825      3.046345     -0.024978
  C       1.713539      0.870377     -2.229011
  C       0.285269     -1.691582     -3.299983
  C      -2.055032     -0.174089     -1.969223
  O      -4.302433      1.233925      0.642895
  O      -1.336511      3.749289      0.363327
  O       2.940006      3.762165      0.391766
  O       2.654623      0.997307     -2.941481
  O       0.467304     -2.593476     -4.009858
  O      -2.996624     -0.546457     -2.584427
  Pt      1.799004     -1.030684      0.556595
  Pt     -0.802361     -1.841053      0.573265
  Pt     -0.038163      0.305194      2.060773
  C       3.557537     -1.213523     -0.080582
  C       0.927361     -2.808511     -0.070966
  C      -2.145693     -3.014296     -0.023363
  C      -1.738517     -0.882400      2.156037
  C      -0.471317      1.701933      3.243524
  C       2.043458      0.321528      2.115874
  O       4.631691     -1.297499     -0.512286
  O       1.251905     -3.866010     -0.499710
  O      -2.986544     -3.702507     -0.431994
  O      -2.710507     -0.999932      2.827190
  O      -0.753901      2.596063      3.927927
  O       2.916673      0.796569      2.763397
30
Coordinates from ORCA-job Pt3_Pt2Ni E -3465.231855341114
  Ni     -1.618306      0.945450     -0.464958
  Pt      0.821427      1.817073     -0.608961
  Pt      0.005096     -0.296980     -2.064434
  C      -3.238883      1.120282      0.199651
  C      -0.946355      2.692683     -0.002804
  C       2.125019      3.047212     -0.027894
  C       1.715315      0.868566     -2.226610
  C       0.287785     -1.688487     -3.302849
  C      -2.055095     -0.174191     -1.970211
  O      -4.299976      1.224054      0.653309
  O      -1.336134      3.750345      0.362136
  O       2.941388      3.763648      0.385511
  O       2.658538      0.993845     -2.936517
  O       0.472404     -2.587748     -4.015425
  O      -2.995609     -0.546159     -2.587272
  Pt      1.797010     -1.030449      0.556637
  Pt     -0.804319     -1.840601      0.574336
  Pt     -0.039814      0.305106      2.061447
  C       3.556300     -1.215713     -0.078083
  C       0.924846     -2.807373     -0.073114
  C      -2.147592     -3.013489     -0.023291
  C      -1.738893     -0.883762      2.159205
  C      -0.471620      1.703969      3.242320
  C       2.041984      0.323280      2.114764
  O       4.631613     -1.302908     -0.506147
  O       1.248862     -3.864120     -0.503997
  O      -2.988060     -3.701598     -0.432916
  O      -2.710296     -1.002179      2.831019
  O      -0.752249      2.600274      3.924690
  O       2.915613      0.799969      2.760455
30
Coordinates from ORCA-job Pt3_Pt2Ni E -3465.231861823373
  Ni     -1.619163      0.946060     -0.466106
  Pt      0.820744      1.817366     -0.609472
  Pt      0.005123     -0.296082     -2.064997
  C      -3.238159      1.115710      0.204167
  C      -0.946901      2.693101     -0.003378
  C       2.124923      3.047914     -0.030399
  C       1.716746      0.867792     -2.225418
  C       0.289935     -1.685612     -3.305232
  C      -2.054886     -0.173837     -1.971704
  O      -4.296911      1.213332      0.664674
  O      -1.335903      3.751555      0.360264
  O       2.942456      3.765148      0.379178
  O       2.662147      0.991150     -2.932734
  O       0.477852     -2.581532     -4.021072
  O      -2.994435     -0.545411     -2.590580
  Pt      1.795417     -1.030678      0.557032
  Pt     -0.806212     -1.840301      0.575669
  Pt     -0.041253      0.304773      2.062343
  C       3.555206     -1.218710     -0.074832
  C       0.922028     -2.806426     -0.074452
  C      -2.149610     -3.012101     -0.023383
  C      -1.738714     -0.885454      2.162805
  C      -0.471613      1.706273      3.240401
  C       2.040300      0.324230      2.114058
  O       4.631686     -1.308109     -0.499502
  O       1.244940     -3.862571     -0.507754
  O      -2.989512     -3.700257     -0.434098
  O      -2.709444     -1.004799      2.835514
  O      -0.750829      2.604474      3.920862
  O       2.914044      0.803002      2.758145
30
Coordinates from ORCA-job Pt3_Pt2Ni E -3465.231865395036
  Ni     -1.619121      0.946417     -0.467142
  Pt      0.820287      1.817489     -0.610081
  Pt      0.005277     -0.295263     -2.065318
  C      -3.237376      1.113029      0.206387
  C      -0.947057      2.693436     -0.004365
  C       2.124426      3.048193     -0.031253
  C       1.717287      0.868240     -2.225689
  C       0.290635     -1.684292     -3.305984
  C      -2.054395     -0.173301     -1.972944
  O      -4.294697      1.207316      0.670746
  O      -1.336103      3.752148      0.358717
  O       2.942177      3.766278      0.376155
  O       2.663740      0.990425     -2.931779
  O       0.480044     -2.578115     -4.023920
  O      -2.993754     -0.544537     -2.592470
  Pt      1.795132     -1.031262      0.557463
  Pt     -0.806953     -1.840238      0.576351
  Pt     -0.041725      0.304503      2.062895
  C       3.555121     -1.220986     -0.072618
  C       0.920516     -2.806083     -0.074524
  C      -2.150639     -3.011177     -0.023658
  C      -1.738152     -0.886500      2.164821
  C      -0.471784      1.707511      3.239228
  C       2.039442      0.324084      2.113991
  O       4.632128     -1.310762     -0.495986
  O       1.242399     -3.862045     -0.509243
  O      -2.990870     -3.698986     -0.434290
  O      -2.708465     -1.006352      2.838164
  O      -0.750443      2.606554      3.918816
  O       2.912921      0.804276      2.757526
30
Coordinates from ORCA-job Pt3_Pt2Ni E -3465.231867146073
  Ni     -1.618528      0.946546     -0.467919
  Pt      0.820298      1.817549     -0.610395
  Pt      0.005605     -0.294951     -2.065444
  C      -3.236611      1.111861      0.206933
  C      -0.946969      2.693616     -0.005243
  C       2.124057      3.048539     -0.030987
  C       1.717423      0.868964     -2.226290
  C       0.290497     -1.684278     -3.306031
  C      -2.053850     -0.172854     -1.973738
  O      -4.293290      1.204907      0.672863
  O      -1.336668      3.752140      0.357827
  O       2.941270      3.767397      0.376000
  O       2.664138      0.990599     -2.932109
  O       0.479616     -2.577450     -4.024781
  O      -2.993497     -0.543797     -2.593093
  Pt      1.795514     -1.031716      0.557706
  Pt     -0.807070     -1.840123      0.576360
  Pt     -0.041557      0.304516      2.062892
  C       3.555438     -1.222165     -0.071603
  C       0.920031     -2.806129     -0.074185
  C      -2.151215     -3.010417     -0.023591
  C      -1.737608     -0.886832      2.165468
  C      -0.471780      1.707823      3.238624
  C       2.039350      0.323662      2.114058
  O       4.632516     -1.311646     -0.494955
  O       1.241237     -3.862141     -0.509442
  O      -2.991817     -3.697959     -0.433901
  O      -2.707665     -1.006867      2.839215
  O      -0.751344      2.606680      3.918091
  O       2.912478      0.804528      2.757669
