30
Coordinates from ORCA-job Pt3_PtNi2 E -4853.933359787768
  Pt     -1.768878      1.027636     -0.528433
  Pt      0.815029      1.786807     -0.573291
  Pt     -0.000937     -0.285447     -2.087646
  C      -3.532123      1.291712      0.052177
  C      -0.874302      2.778047      0.123647
  C       2.165863      2.979566     -0.049884
  C       1.742787      0.826522     -2.167530
  C       0.346258     -1.592486     -3.386690
  C      -2.082809     -0.300808     -2.099121
  O      -4.612418      1.464956      0.394962
  O      -1.172107      3.819000      0.564425
  O       2.990788      3.711158      0.265316
  O       2.705486      0.928564     -2.823115
  O       0.551881     -2.379498     -4.194579
  O      -2.963254     -0.742540     -2.726378
  Ni      1.606416     -0.923086      0.490574
  Pt     -0.773511     -1.798816      0.598145
  Ni     -0.019374      0.246859      1.894066
  C       3.285282     -1.097332      0.002029
  C       0.987834     -2.657176     -0.049226
  C      -2.066960     -3.105302      0.193924
  C      -1.598262     -0.800413      2.201665
  C      -0.308825      1.496687      3.094600
  C       1.880965      0.187953      2.016827
  O       4.380944     -1.225469     -0.297977
  O       1.397632     -3.683214     -0.425290
  O      -2.853176     -3.909222     -0.040297
  O      -2.481003     -0.897009      2.959061
  O      -0.492316      2.299487      3.887510
  O       2.743089      0.552865      2.710528
30
Coordinates from ORCA-job Pt3_PtNi2 E -4853.939439238384
  Pt     -1.783978      1.031432     -0.525490
  Pt      0.823540      1.796869     -0.571499
  Pt      0.001458     -0.295151     -2.100531
  C      -3.556339      1.292710      0.068321
  C      -0.875205      2.788908      0.128727
  C       2.184803      2.992653     -0.038509
  C       1.753107      0.828989     -2.173445
  C       0.355313     -1.617105     -3.400478
  C      -2.093372     -0.305934     -2.107007
  O      -4.645617      1.459948      0.424141
  O      -1.174958      3.841220      0.576381
  O       3.020675      3.725162      0.287700
  O       2.727829      0.932023     -2.834668
  O       0.566614     -2.420230     -4.207513
  O      -2.984181     -0.754076     -2.740424
  Ni      1.608009     -0.918645      0.487199
  Pt     -0.777884     -1.799002      0.593126
  Ni     -0.018893      0.252254      1.891803
  C       3.288509     -1.093235     -0.000148
  C       0.989340     -2.655467     -0.050845
  C      -2.080353     -3.114877      0.185922
  C      -1.598505     -0.796924      2.201471
  C      -0.307360      1.502290      3.094232
  C       1.882417      0.191706      2.015228
  O       4.396325     -1.223396     -0.304334
  O       1.404004     -3.694737     -0.428557
  O      -2.875901     -3.924674     -0.054503
  O      -2.490365     -0.896393      2.969254
  O      -0.493855      2.313873      3.896323
  O       2.754822      0.559810      2.718121
30
Coordinates from ORCA-job Pt3_PtNi2 E -4853.940170444507
  Pt     -1.775654      1.022785     -0.520514
  Pt      0.821665      1.788970     -0.567088
  Pt      0.001396     -0.297741     -2.087972
  C      -3.538628      1.281904      0.067478
  C      -0.870630      2.771221      0.124722
  C       2.175619      2.979307     -0.037737
  C       1.739518      0.824941     -2.162508
  C       0.350911     -1.611632     -3.381367
  C      -2.074895     -0.301152     -2.090442
  O      -4.629750      1.453090      0.428806
  O      -1.173066      3.829514      0.570923
  O       3.012673      3.714908      0.292581
  O       2.716388      0.930414     -2.829842
  O       0.564681     -2.418417     -4.189887
  O      -2.969655     -0.749221     -2.728149
  Ni      1.606864     -0.915912      0.483486
  Pt     -0.781215     -1.798938      0.589076
  Ni     -0.020060      0.255189      1.888079
  C       3.287171     -1.087903     -0.008030
  C       0.984222     -2.652548     -0.052930
  C      -2.078512     -3.103353      0.177877
  C      -1.599214     -0.796563      2.195133
  C      -0.310049      1.508878      3.087415
  C       1.881699      0.194245      2.012054
  O       4.398543     -1.213052     -0.319952
  O       1.397561     -3.697545     -0.434923
  O      -2.879307     -3.910465     -0.073647
  O      -2.498324     -0.897063      2.963473
  O      -0.498868      2.329383      3.886990
  O       2.758916      0.566758      2.716895
30
Coordinates from ORCA-job Pt3_PtNi2 E -4853.940353258713
  Pt     -1.780687      1.025869     -0.515501
  Pt      0.827002      1.792850     -0.562999
  Pt      0.005264     -0.301275     -2.091477
  C      -3.543643      1.282526      0.080482
  C      -0.868679      2.773112      0.128742
  C       2.182928      2.980806     -0.028801
  C       1.742414      0.826466     -2.160964
  C       0.358431     -1.620921     -3.381128
  C      -2.076135     -0.299655     -2.091412
  O      -4.644588      1.414180      0.426993
  O      -1.170484      3.831587      0.575664
  O       3.030140      3.704757      0.299803
  O       2.719638      0.932594     -2.828097
  O       0.553820     -2.440308     -4.181005
  O      -2.971450     -0.747614     -2.729366
  Ni      1.607631     -0.911255      0.480526
  Pt     -0.783838     -1.796488      0.584837
  Ni     -0.019550      0.260100      1.885873
  C       3.288309     -1.082907     -0.011874
  C       0.982892     -2.648498     -0.053662
  C      -2.082932     -3.099919      0.170268
  C      -1.597849     -0.794108      2.192428
  C      -0.309620      1.514456      3.085349
  C       1.882421      0.197646      2.010255
  O       4.398416     -1.206786     -0.326484
  O       1.394966     -3.694441     -0.434055
  O      -2.888030     -3.901531     -0.083135
  O      -2.496517     -0.896701      2.960797
  O      -0.499806      2.335833      3.882796
  O       2.759536      0.569623      2.715147
30
Coordinates from ORCA-job Pt3_PtNi2 E -4853.940305975272
  Pt     -1.794270      1.023306     -0.511646
  Pt      0.833041      1.795019     -0.561315
  Pt      0.007610     -0.315064     -2.099830
  C      -3.560729      1.268085      0.095681
  C      -0.870014      2.772653      0.128807
  C       2.194585      2.980188     -0.020286
  C       1.744030      0.824190     -2.163475
  C       0.364246     -1.649095     -3.381299
  C      -2.082905     -0.305646     -2.096351
  O      -4.630839      1.456744      0.502665
  O      -1.171283      3.831263      0.575441
  O       3.027753      3.705157      0.335829
  O       2.721016      0.931224     -2.830542
  O       0.608686     -2.465879     -4.168291
  O      -2.978367     -0.754959     -2.733883
  Ni      1.607174     -0.905985      0.473006
  Pt     -0.791340     -1.798929      0.577299
  Ni     -0.021386      0.266810      1.878629
  C       3.288844     -1.076213     -0.021934
  C       0.979154     -2.646120     -0.053319
  C      -2.094361     -3.103103      0.158377
  C      -1.596758     -0.793979      2.186515
  C      -0.312671      1.524534      3.076604
  C       1.881224      0.202085      2.004096
  O       4.395902     -1.195915     -0.341692
  O       1.389371     -3.693151     -0.429456
  O      -2.896111     -3.901010     -0.110438
  O      -2.493645     -0.899325      2.954931
  O      -0.505148      2.348636      3.867839
  O       2.757190      0.574477      2.708039
30
Coordinates from ORCA-job Pt3_PtNi2 E -4853.940652513417
  Pt     -1.785308      1.021010     -0.509554
  Pt      0.831134      1.791378     -0.558823
  Pt      0.007056     -0.311084     -2.090750
  C      -3.548358      1.268851      0.095658
  C      -0.867528      2.768213      0.129447
  C       2.190920      2.975911     -0.018741
  C       1.740133      0.824173     -2.159158
  C       0.362669     -1.640532     -3.372125
  C      -2.075630     -0.301375     -2.089933
  O      -4.634583      1.418346      0.476989
  O      -1.169191      3.827045      0.575370
  O       3.033737      3.694358      0.329701
  O       2.716297      0.931686     -2.827416
  O       0.586019     -2.464442     -4.158767
  O      -2.970951     -0.749138     -2.728086
  Ni      1.607250     -0.904772      0.472970
  Pt     -0.791240     -1.797255      0.577448
  Ni     -0.020844      0.268002      1.878979
  C       3.288429     -1.073828     -0.024483
  C       0.978725     -2.644637     -0.053344
  C      -2.094395     -3.097240      0.154939
  C      -1.596346     -0.792484      2.186527
  C      -0.312680      1.527188      3.075463
  C       1.881785      0.202473      2.004598
  O       4.395746     -1.191217     -0.346595
  O       1.388388     -3.691551     -0.431484
  O      -2.899873     -3.891591     -0.115780
  O      -2.494720     -0.896913      2.953846
  O      -0.504979      2.353778      3.865105
  O       2.758337      0.575647      2.707999
30
Coordinates from ORCA-job Pt3_PtNi2 E -4853.940711330180
  Pt     -1.781351      1.016757     -0.508317
  Pt      0.831517      1.788876     -0.555720
  Pt      0.010532     -0.311717     -2.086646
  C      -3.542327      1.259677      0.098993
  C      -0.867616      2.764558      0.130044
  C       2.189623      2.970796     -0.011886
  C       1.740582      0.825227     -2.156888
  C       0.370016     -1.642093     -3.363456
  C      -2.070154     -0.300913     -2.090254
  O      -4.625040      1.410652      0.490068
  O      -1.170493      3.823098      0.575831
  O       3.036212      3.683243      0.340222
  O       2.716513      0.934349     -2.825221
  O       0.558038     -2.483543     -4.140967
  O      -2.964545     -0.748700     -2.729366
  Ni      1.608595     -0.901200      0.470170
  Pt     -0.792122     -1.798245      0.572901
  Ni     -0.021755      0.270573      1.875916
  C       3.290208     -1.066801     -0.030057
  C       0.980765     -2.642813     -0.053329
  C      -2.094038     -3.093497      0.143457
  C      -1.595430     -0.793643      2.183151
  C      -0.316716      1.532301      3.070280
  C       1.881158      0.204315      2.003745
  O       4.397199     -1.178772     -0.355874
  O       1.390718     -3.689528     -0.431833
  O      -2.911373     -3.876057     -0.126797
  O      -2.495052     -0.898610      2.948976
  O      -0.510791      2.362512      3.855945
  O       2.757124      0.579198      2.706911
30
Coordinates from ORCA-job Pt3_PtNi2 E -4853.940773593776
  Pt     -1.775974      1.014010     -0.501480
  Pt      0.830888      1.782343     -0.551494
  Pt      0.006646     -0.313222     -2.076823
  C      -3.529362      1.253535      0.116995
  C      -0.865087      2.762127      0.131874
  C       2.190419      2.954728     -0.003773
  C       1.734114      0.823115     -2.157509
  C       0.363472     -1.650666     -3.341858
  C      -2.070039     -0.294378     -2.086008
  O      -4.621670      1.354636      0.498158
  O      -1.166360      3.821093      0.577240
  O       3.042440      3.655184      0.360045
  O       2.707907      0.932305     -2.828535
  O       0.602071     -2.488574     -4.109744
  O      -2.965074     -0.740673     -2.724097
  Ni      1.606070     -0.896851      0.463564
  Pt     -0.802303     -1.797780      0.570430
  Ni     -0.022466      0.278828      1.872167
  C       3.287038     -1.059963     -0.047556
  C       0.974083     -2.641925     -0.048764
  C      -2.106114     -3.079470      0.132472
  C      -1.593811     -0.789559      2.184940
  C      -0.317936      1.548528      3.061405
  C       1.881360      0.205004      2.000210
  O       4.392042     -1.162585     -0.384562
  O       1.381410     -3.689375     -0.427733
  O      -2.917111     -3.858524     -0.166979
  O      -2.494318     -0.892321      2.949916
  O      -0.511156      2.388477      3.837487
  O       2.758821      0.581953      2.700011
30
Coordinates from ORCA-job Pt3_PtNi2 E -4853.940909985989
  Pt     -1.779052      1.014586     -0.503665
  Pt      0.831203      1.784428     -0.552220
  Pt      0.008043     -0.313431     -2.080418
  C      -3.535903      1.249934      0.117850
  C      -0.867366      2.763981      0.130817
  C       2.193017      2.957848     -0.000354
  C       1.735879      0.825080     -2.159286
  C       0.368234     -1.655260     -3.344370
  C      -2.071561     -0.295017     -2.090679
  O      -4.619086      1.374150      0.517316
  O      -1.169247      3.822431      0.576655
  O       3.050067      3.653192      0.361019
  O       2.710058      0.934593     -2.829483
  O       0.594174     -2.499489     -4.108850
  O      -2.966041     -0.741976     -2.729242
  Ni      1.606606     -0.896256      0.463957
  Pt     -0.801342     -1.798824      0.570349
  Ni     -0.023453      0.278705      1.872004
  C       3.287844     -1.057908     -0.047132
  C       0.976527     -2.642501     -0.047049
  C      -2.107261     -3.083304      0.130057
  C      -1.593666     -0.791308      2.185553
  C      -0.320344      1.548775      3.060679
  C       1.880470      0.205122      2.001353
  O       4.392601     -1.159590     -0.384153
  O       1.384975     -3.689747     -0.424838
  O      -2.914330     -3.864400     -0.174515
  O      -2.493660     -0.894622      2.950803
  O      -0.514685      2.388699      3.836052
  O       2.757298      0.582110      2.701790
30
Coordinates from ORCA-job Pt3_PtNi2 E -4853.940510164293
  Pt     -1.779109      1.013572     -0.509678
  Pt      0.836482      1.784074     -0.556771
  Pt      0.012946     -0.315413     -2.089635
  C      -3.537966      1.240358      0.122433
  C      -0.865946      2.765361      0.126079
  C       2.204648      2.952866      0.002948
  C       1.741699      0.826212     -2.168117
  C       0.377675     -1.667549     -3.347061
  C      -2.071762     -0.295415     -2.102379
  O      -4.614366      1.370544      0.537406
  O      -1.167829      3.822924      0.573449
  O       3.000717      3.686913      0.422129
  O       2.716047      0.935890     -2.837740
  O       0.605514     -2.517626     -4.104062
  O      -2.966365     -0.742825     -2.740746
  Ni      1.610968     -0.898405      0.458874
  Pt     -0.797293     -1.803322      0.566583
  Ni     -0.020377      0.276756      1.867596
  C       3.292041     -1.056837     -0.056316
  C       0.982951     -2.647594     -0.046125
  C      -2.105667     -3.088455      0.118627
  C      -1.587783     -0.796814      2.185281
  C      -0.319152      1.549798      3.053786
  C       1.883954      0.200245      1.998955
  O       4.395631     -1.154569     -0.397101
  O       1.392707     -3.694731     -0.422051
  O      -2.979015     -3.815394     -0.132759
  O      -2.486782     -0.900335      2.951298
  O      -0.514949      2.392421      3.825350
  O       2.760378      0.577349      2.699745
30
Coordinates from ORCA-job Pt3_PtNi2 E -4853.941008590210
  Pt     -1.780162      1.014928     -0.507112
  Pt      0.832398      1.784748     -0.553550
  Pt      0.009284     -0.313169     -2.084847
  C      -3.535558      1.240240      0.126077
  C      -0.868979      2.766758      0.127948
  C       2.197320      2.951587      0.008568
  C       1.737141      0.828389     -2.165961
  C       0.374287     -1.665663     -3.338276
  C      -2.073475     -0.292198     -2.099812
  O      -4.610546      1.370567      0.544956
  O      -1.171023      3.824356      0.575277
  O       3.045113      3.648313      0.388551
  O       2.711208      0.938374     -2.835973
  O       0.601085     -2.518936     -4.092231
  O      -2.967583     -0.739956     -2.738381
  Ni      1.607425     -0.895535      0.460722
  Pt     -0.801706     -1.801207      0.569313
  Ni     -0.024243      0.280025      1.869605
  C       3.288346     -1.052586     -0.056897
  C       0.979561     -2.645804     -0.041413
  C      -2.109844     -3.081151      0.120767
  C      -1.590769     -0.794825      2.188306
  C      -0.323942      1.554998      3.054153
  C       1.880271      0.202170      2.001673
  O       4.391663     -1.147778     -0.400263
  O       1.389150     -3.693112     -0.417245
  O      -2.933012     -3.845816     -0.183103
  O      -2.490301     -0.897681      2.953936
  O      -0.520072      2.400044      3.823391
  O       2.756961      0.579922      2.701818
30
Coordinates from ORCA-job Pt3_PtNi2 E -4853.941048254494
  Pt     -1.779265      1.015546     -0.507689
  Pt      0.832473      1.784330     -0.553537
  Pt      0.008559     -0.311965     -2.084143
  C      -3.533308      1.237571      0.131192
  C      -0.868631      2.767464      0.126414
  C       2.198994      2.947016      0.012908
  C       1.735409      0.829863     -2.167621
  C       0.374863     -1.669076     -3.332224
  C      -2.073405     -0.288925     -2.101311
  O      -4.607977      1.359673      0.553463
  O      -1.170377      3.824933      0.574113
  O       3.048175      3.639528      0.397550
  O       2.709094      0.939823     -2.838091
  O       0.600696     -2.527900     -4.080187
  O      -2.967523     -0.736527     -2.739901
  Ni      1.606717     -0.894876      0.459650
  Pt     -0.802815     -1.800783      0.570168
  Ni     -0.024931      0.281800      1.869057
  C       3.287006     -1.049619     -0.062416
  C       0.979016     -2.646883     -0.037268
  C      -2.112863     -3.076751      0.116837
  C      -1.589735     -0.794965      2.190712
  C      -0.325485      1.560125      3.050551
  C       1.879827      0.200822      2.002317
  O       4.389251     -1.141362     -0.410141
  O       1.388456     -3.694558     -0.412088
  O      -2.927421     -3.844351     -0.202699
  O      -2.489137     -0.897250      2.956523
  O      -0.522392      2.408619      3.815774
  O       2.756730      0.578677      2.702086
30
Coordinates from ORCA-job Pt3_PtNi2 E -4853.940987401025
  Pt     -1.779165      1.016112     -0.511685
  Pt      0.828446      1.785872     -0.553413
  Pt      0.005551     -0.305474     -2.084963
  C      -3.528556      1.224493      0.144482
  C      -0.873119      2.769301      0.121865
  C       2.196536      2.937076      0.029829
  C       1.728184      0.840301     -2.173691
  C       0.377744     -1.675777     -3.316185
  C      -2.073858     -0.280419     -2.108736
  O      -4.599755      1.326328      0.580998
  O      -1.175766      3.825351      0.572059
  O       3.091037      3.584154      0.390364
  O       2.700985      0.952158     -2.844890
  O       0.636271     -2.538538     -4.049020
  O      -2.967553     -0.728580     -2.747520
  Ni      1.604237     -0.892766      0.457035
  Pt     -0.802613     -1.801475      0.572872
  Ni     -0.029521      0.283528      1.868661
  C       3.282526     -1.036575     -0.078717
  C       0.981016     -2.650810     -0.024607
  C      -2.115053     -3.067896      0.103454
  C      -1.586957     -0.801539      2.198796
  C      -0.334960      1.570758      3.041131
  C       1.875946      0.195073      2.006543
  O       4.381494     -1.115897     -0.439896
  O       1.392497     -3.698726     -0.396185
  O      -2.946572     -3.813683     -0.224585
  O      -2.485710     -0.904181      2.965215
  O      -0.536142      2.428846      3.794535
  O       2.752828      0.572982      2.706252
30
Coordinates from ORCA-job Pt3_PtNi2 E -4853.941143371480
  Pt     -1.779182      1.018615     -0.513521
  Pt      0.831289      1.786336     -0.555967
  Pt      0.006186     -0.306190     -2.088036
  C      -3.526549      1.227408      0.144064
  C      -0.870224      2.771634      0.119683
  C       2.201711      2.934572      0.027261
  C       1.730309      0.839157     -2.176584
  C       0.378534     -1.677968     -3.316914
  C      -2.075058     -0.280223     -2.110621
  O      -4.597068      1.330281      0.581785
  O      -1.171761      3.827966      0.570269
  O       3.063667      3.607286      0.418814
  O       2.703449      0.949751     -2.847784
  O       0.617293     -2.548825     -4.046815
  O      -2.969283     -0.728488     -2.749002
  Ni      1.604455     -0.895020      0.456871
  Pt     -0.801481     -1.800197      0.574280
  Ni     -0.028152      0.283268      1.868336
  C       3.282000     -1.039313     -0.079937
  C       0.980447     -2.652953     -0.022816
  C      -2.115457     -3.065236      0.104966
  C      -1.585820     -0.800494      2.199969
  C      -0.332222      1.571638      3.039390
  C       1.877201      0.192582      2.006325
  O       4.380499     -1.119828     -0.442247
  O       1.391298     -3.701760     -0.392780
  O      -2.932980     -3.821051     -0.234830
  O      -2.483969     -0.902446      2.967259
  O      -0.533448      2.430329      3.792098
  O       2.754313      0.569172      2.706482
30
Coordinates from ORCA-job Pt3_PtNi2 E -4853.941167520015
  Pt     -1.779004      1.019155     -0.514699
  Pt      0.831816      1.786964     -0.557067
  Pt      0.006702     -0.305790     -2.089306
  C      -3.526235      1.226277      0.145787
  C      -0.869506      2.772002      0.118059
  C       2.203305      2.933039      0.028576
  C       1.729945      0.840653     -2.178007
  C       0.380682     -1.679854     -3.315692
  C      -2.074481     -0.280004     -2.111556
  O      -4.595270      1.327115      0.587637
  O      -1.170956      3.828116      0.569306
  O       3.059933      3.607751      0.428236
  O       2.703065      0.951317     -2.849282
  O       0.617574     -2.554619     -4.041527
  O      -2.968706     -0.728307     -2.749987
  Ni      1.604249     -0.895627      0.456210
  Pt     -0.799975     -1.799401      0.574875
  Ni     -0.028396      0.282945      1.867925
  C       3.280817     -1.037371     -0.083271
  C       0.980957     -2.654198     -0.020702
  C      -2.115458     -3.062874      0.102016
  C      -1.584882     -0.801597      2.200963
  C      -0.332654      1.573107      3.036461
  C       1.876904      0.190482      2.006755
  O       4.378301     -1.116369     -0.448743
  O       1.392022     -3.703637     -0.388723
  O      -2.936953     -3.814243     -0.237743
  O      -2.482341     -0.904204      2.969005
  O      -0.535325      2.433427      3.786804
  O       2.753871      0.565747      2.707690
30
Coordinates from ORCA-job Pt3_PtNi2 E -4853.941193547465
  Pt     -1.779349      1.020252     -0.516627
  Pt      0.832055      1.788810     -0.559183
  Pt      0.007145     -0.304952     -2.091700
  C      -3.524517      1.223864      0.149272
  C      -0.869023      2.773405      0.115454
  C       2.205092      2.930432      0.031549
  C       1.728962      0.844334     -2.181125
  C       0.384600     -1.682935     -3.312266
  C      -2.074353     -0.280479     -2.112848
  O      -4.590407      1.321120      0.599463
  O      -1.170403      3.828933      0.568381
  O       3.059370      3.602597      0.440397
  O       2.702065      0.955259     -2.852537
  O       0.624151     -2.563382     -4.030353
  O      -2.968577     -0.729055     -2.751230
  Ni      1.603154     -0.896882      0.455101
  Pt     -0.797270     -1.797631      0.576425
  Ni     -0.029627      0.282065      1.867551
  C       3.277433     -1.032661     -0.090266
  C       0.981650     -2.656707     -0.016198
  C      -2.115276     -3.057257      0.096511
  C      -1.583695     -0.803948      2.203290
  C      -0.334209      1.575958      3.030565
  C       1.875526      0.185881      2.008052
  O       4.372716     -1.108174     -0.462944
  O       1.393351     -3.707579     -0.379664
  O      -2.943021     -3.800601     -0.245054
  O      -2.479518     -0.908225      2.973108
  O      -0.540202      2.439854      3.775843
  O       2.752176      0.557707      2.711032
30
Coordinates from ORCA-job Pt3_PtNi2 E -4853.941205174565
  Pt     -1.779160      1.020237     -0.516457
  Pt      0.831851      1.789500     -0.559970
  Pt      0.007697     -0.305023     -2.091570
  C      -3.523938      1.222811      0.151530
  C      -0.868778      2.773723      0.114987
  C       2.205370      2.929698      0.032439
  C       1.728508      0.845858     -2.181906
  C       0.387134     -1.684369     -3.310096
  C      -2.073776     -0.281915     -2.111634
  O      -4.588467      1.318289      0.605397
  O      -1.170161      3.828898      0.568742
  O       3.061529      3.598378      0.443057
  O       2.701468      0.957061     -2.853461
  O       0.629903     -2.566786     -4.024727
  O      -2.967885     -0.730472     -2.750073
  Ni      1.602391     -0.897367      0.454537
  Pt     -0.796443     -1.796600      0.576820
  Ni     -0.030427      0.281682      1.867463
  C       3.275193     -1.029553     -0.094018
  C       0.981682     -2.657499     -0.014665
  C      -2.115958     -3.054054      0.093154
  C      -1.583701     -0.804632      2.203917
  C      -0.334947      1.577505      3.027261
  C       1.874581      0.183808      2.008539
  O       4.369177     -1.102798     -0.471025
  O       1.393628     -3.709344     -0.375149
  O      -2.946324     -3.793260     -0.250707
  O      -2.478392     -0.910319      2.974917
  O      -0.542738      2.443525      3.769610
  O       2.750982      0.553020      2.713089
30
Coordinates from ORCA-job Pt3_PtNi2 E -4853.941218527157
  Pt     -1.778699      1.019778     -0.515095
  Pt      0.831435      1.790280     -0.560698
  Pt      0.008621     -0.305753     -2.090287
  C      -3.522802      1.221844      0.154238
  C      -0.868635      2.774192      0.115512
  C       2.205302      2.929570      0.032634
  C       1.728487      0.847154     -2.182455
  C       0.390417     -1.685874     -3.306982
  C      -2.073055     -0.285041     -2.108499
  O      -4.586157      1.316573      0.611058
  O      -1.170023      3.828914      0.570240
  O       3.064978      3.593745      0.443223
  O       2.701167      0.958748     -2.854280
  O       0.637666     -2.569359     -4.018800
  O      -2.967007     -0.733568     -2.746967
  Ni      1.601403     -0.898028      0.454113
  Pt     -0.796442     -1.795760      0.576986
  Ni     -0.031384      0.281175      1.867757
  C       3.272185     -1.025661     -0.098381
  C       0.981354     -2.658134     -0.013644
  C      -2.117656     -3.050386      0.089346
  C      -1.584461     -0.804798      2.204197
  C      -0.335577      1.579241      3.023510
  C       1.873402      0.181524      2.009103
  O       4.364514     -1.095503     -0.481106
  O       1.393455     -3.711374     -0.369928
  O      -2.949169     -3.785713     -0.259834
  O      -2.477536     -0.912587      2.976824
  O      -0.545236      2.448195      3.762053
  O       2.749453      0.546606      2.716161
30
Coordinates from ORCA-job Pt3_PtNi2 E -4853.941226881734
  Pt     -1.777940      1.019218     -0.513503
  Pt      0.831177      1.790608     -0.560967
  Pt      0.009518     -0.306478     -2.088555
  C      -3.522163      1.221681      0.155612
  C      -0.868527      2.774411      0.116541
  C       2.205102      2.930123      0.031849
  C       1.728880      0.847419     -2.182450
  C       0.392445     -1.686547     -3.305017
  C      -2.072264     -0.287634     -2.105438
  O      -4.585597      1.316918      0.612150
  O      -1.169928      3.828885      0.571696
  O       3.066582      3.592760      0.441129
  O       2.701232      0.959316     -2.854593
  O       0.641964     -2.569464     -4.016758
  O      -2.966125     -0.736207     -2.743865
  Ni      1.601016     -0.898657      0.454319
  Pt     -0.797413     -1.796110      0.576931
  Ni     -0.031678      0.280693      1.868515
  C       3.270489     -1.023596     -0.100675
  C       0.980955     -2.658428     -0.013567
  C      -2.119456     -3.048914      0.087488
  C      -1.585375     -0.804506      2.204145
  C      -0.335596      1.580054      3.021844
  C       1.872957      0.180263      2.009624
  O       4.361785     -1.090473     -0.487122
  O       1.392957     -3.712619     -0.367062
  O      -2.950674     -3.782357     -0.266443
  O      -2.477371     -0.913779      2.977794
  O      -0.545727      2.451228      3.757767
  O       2.748772      0.542194      2.718611
30
Coordinates from ORCA-job Pt3_PtNi2 E -4853.941233126134
  Pt     -1.777060      1.018828     -0.512229
  Pt      0.831195      1.790976     -0.561082
  Pt      0.010382     -0.306895     -2.087036
  C      -3.521538      1.221845      0.155845
  C      -0.868450      2.774669      0.117498
  C       2.205110      2.931033      0.030812
  C       1.729438      0.847521     -2.182516
  C       0.393666     -1.686687     -3.303732
  C      -2.071493     -0.289573     -2.103039
  O      -4.585738      1.318350      0.610254
  O      -1.169934      3.829002      0.572815
  O       3.066767      3.594351      0.438587
  O       2.701408      0.959708     -2.855086
  O       0.643447     -2.568428     -4.016796
  O      -2.965347     -0.738473     -2.741259
  Ni      1.601099     -0.899522      0.455128
  Pt     -0.798781     -1.797500      0.577119
  Ni     -0.031487      0.279976      1.869823
  C       3.269643     -1.022591     -0.102053
  C       0.980673     -2.658936     -0.013312
  C      -2.121265     -3.048943      0.086728
  C      -1.586087     -0.804434      2.204343
  C      -0.335375      1.580377      3.021444
  C       1.873048      0.179105      2.010556
  O       4.360122     -1.086234     -0.491502
  O       1.392454     -3.713820     -0.364814
  O      -2.952049     -3.781062     -0.271247
  O      -2.477375     -0.914753      2.978589
  O      -0.545162      2.453701      3.754996
  O       2.748687      0.538411      2.721164
30
Coordinates from ORCA-job Pt3_PtNi2 E -4853.941237249856
  Pt     -1.776318      1.018796     -0.511776
  Pt      0.831537      1.791399     -0.561074
  Pt      0.011052     -0.306770     -2.086298
  C      -3.521311      1.222252      0.155056
  C      -0.868301      2.774841      0.117883
  C       2.205372      2.931925      0.030049
  C       1.729804      0.847807     -2.182688
  C       0.394035     -1.686366     -3.303451
  C      -2.070786     -0.290363     -2.101957
  O      -4.586470      1.319863      0.606904
  O      -1.169956      3.829135      0.573165
  O       3.066022      3.597171      0.436787
  O       2.701416      0.960248     -2.855719
  O       0.642654     -2.567112     -4.018103
  O      -2.964684     -0.739898     -2.739784
  Ni      1.601465     -0.900504      0.456244
  Pt     -0.799792     -1.799209      0.577637
  Ni     -0.031010      0.279082      1.871280
  C       3.269516     -1.022445     -0.102756
  C       0.980572     -2.659727     -0.012471
  C      -2.122374     -3.049725      0.086738
  C      -1.586264     -0.804928      2.204914
  C      -0.335153      1.580333      3.021880
  C       1.873466      0.177908      2.011793
  O       4.359378     -1.083250     -0.494373
  O       1.392140     -3.714969     -0.363003
  O      -2.953395     -3.780792     -0.273083
  O      -2.477315     -0.915709      2.979299
  O      -0.544307      2.455414      3.753510
  O       2.749006      0.535593      2.723395
30
Coordinates from ORCA-job Pt3_PtNi2 E -4853.941240091224
  Pt     -1.775763      1.018959     -0.511830
  Pt      0.832117      1.791865     -0.560897
  Pt      0.011598     -0.306365     -2.086128
  C      -3.521204      1.222728      0.153719
  C      -0.868055      2.774900      0.117891
  C       2.205810      2.932751      0.029715
  C       1.729967      0.848370     -2.182871
  C       0.393989     -1.685778     -3.303723
  C      -2.070166     -0.290556     -2.101691
  O      -4.587179      1.321120      0.603404
  O      -1.169966      3.829193      0.573066
  O       3.065249      3.599958      0.435799
  O       2.701242      0.961076     -2.856384
  O       0.640972     -2.565985     -4.019569
  O      -2.964117     -0.740997     -2.738937
  Ni      1.601837     -0.901503      0.457399
  Pt     -0.800287     -1.800664      0.578348
  Ni     -0.030503      0.278098      1.872654
  C       3.269595     -1.022483     -0.103396
  C       0.980547     -2.660709     -0.011060
  C      -2.123004     -3.050565      0.086856
  C      -1.586038     -0.805879      2.205719
  C      -0.335059      1.580238      3.022449
  C       1.873915      0.176544      2.013185
  O       4.358844     -1.080851     -0.496973
  O       1.391983     -3.716108     -0.361208
  O      -2.954787     -3.780707     -0.273208
  O      -2.477150     -0.916730      2.979981
  O      -0.543786      2.456826      3.752336
  O       2.749399      0.533255      2.725354
30
Coordinates from ORCA-job Pt3_PtNi2 E -4853.941242186233
  Pt     -1.775336      1.019120     -0.511948
  Pt      0.832816      1.792202     -0.560475
  Pt      0.012144     -0.305984     -2.086112
  C      -3.521293      1.223331      0.152246
  C      -0.867686      2.774798      0.117896
  C       2.206256      2.933542      0.029638
  C       1.730075      0.849013     -2.182858
  C       0.393872     -1.685077     -3.304318
  C      -2.069553     -0.290721     -2.101543
  O      -4.587900      1.322342      0.600282
  O      -1.169886      3.829108      0.572925
  O       3.064841      3.602258      0.435069
  O       2.701018      0.962029     -2.856851
  O       0.639475     -2.564985     -4.020997
  O      -2.963525     -0.742285     -2.738028
  Ni      1.602011     -0.902460      0.458421
  Pt     -0.800424     -1.801549      0.578979
  Ni     -0.030121      0.277092      1.873794
  C       3.269533     -1.022412     -0.104192
  C       0.980436     -2.661722     -0.009454
  C      -2.123254     -3.050964      0.086878
  C      -1.585708     -0.806988      2.206501
  C      -0.335074      1.580191      3.022807
  C       1.874207      0.175064      2.014521
  O       4.358117     -1.078762     -0.499779
  O       1.391841     -3.717175     -0.359505
  O      -2.955794     -3.780556     -0.272533
  O      -2.477030     -0.917673      2.980544
  O      -0.543725      2.458087      3.751075
  O       2.749666      0.531137      2.727017
30
Coordinates from ORCA-job Pt3_PtNi2 E -4853.941244448815
  Pt     -1.774865      1.019110     -0.511766
  Pt      0.833674      1.792314     -0.559632
  Pt      0.012881     -0.305813     -2.085872
  C      -3.521383      1.224166      0.150603
  C      -0.867125      2.774484      0.118248
  C       2.206684      2.934478      0.029664
  C       1.730307      0.849647     -2.182493
  C       0.393885     -1.684195     -3.305065
  C      -2.068807     -0.291311     -2.100966
  O      -4.588632      1.324019      0.596923
  O      -1.169641      3.828834      0.573049
  O       3.064763      3.604515      0.434018
  O       2.700844      0.963131     -2.857041
  O       0.638377     -2.563687     -4.022640
  O      -2.962765     -0.744359     -2.736405
  Ni      1.601936     -0.903494      0.459419
  Pt     -0.800463     -1.801960      0.579449
  Ni     -0.029838      0.275952      1.874848
  C       3.269159     -1.022059     -0.105391
  C       0.980149     -2.662824     -0.007686
  C      -2.123538     -3.051078      0.086731
  C      -1.585442     -0.808159      2.207231
  C      -0.335126      1.580260      3.022875
  C       1.874338      0.173308      2.015903
  O       4.356884     -1.076365     -0.503520
  O       1.391617     -3.718270     -0.357762
  O      -2.956587     -3.780530     -0.271689
  O      -2.477081     -0.918457      2.980988
  O      -0.544009      2.459558      3.749329
  O       2.749802      0.528788      2.728647
