30
Coordinates from ORCA-job Pt3Ni3 E -6242.643994607472
  Ni     -1.575063      0.921530     -0.460047
  Ni      0.725195      1.638420     -0.547744
  Ni      0.002446     -0.256696     -1.849950
  C      -3.236088      1.217752      0.033181
  C      -0.819780      2.614013     -0.016720
  C       1.957204      2.834088     -0.170352
  C       1.522907      0.859966     -2.093338
  C       0.315832     -1.453601     -3.098744
  C      -1.898042     -0.197714     -1.964833
  O      -4.320069      1.422872      0.338602
  O      -1.143648      3.688567      0.298839
  O       2.754275      3.622776      0.059889
  O       2.398708      1.040695     -2.841233
  O       0.511614     -2.225371     -3.921143
  O      -2.769985     -0.558588     -2.649387
  Pt      1.760706     -0.987927      0.506334
  Pt     -0.799408     -1.820729      0.570856
  Pt     -0.035117      0.298145      2.045833
  C       3.528944     -1.220630     -0.071916
  C       0.911486     -2.772760     -0.125110
  C      -2.112852     -3.058139      0.060309
  C      -1.755578     -0.863661      2.143129
  C      -0.428927      1.604636      3.332109
  C       2.038637      0.374252      2.050270
  O       4.613502     -1.372856     -0.413112
  O       1.237340     -3.806822     -0.562292
  O      -2.912163     -3.822278     -0.244459
  O      -2.717075     -0.972810      2.799320
  O      -0.664691      2.392305      4.131901
  O       2.909687      0.860565      2.659807
30
Coordinates from ORCA-job Pt3Ni3 E -6242.650210594667
  Ni     -1.574437      0.918182     -0.455387
  Ni      0.727034      1.635421     -0.543486
  Ni      0.003612     -0.260566     -1.846420
  C      -3.236866      1.215487      0.037192
  C      -0.819035      2.612272     -0.014136
  C       1.959648      2.832858     -0.167283
  C       1.523984      0.857687     -2.091062
  C       0.316781     -1.457150     -3.097535
  C      -1.897728     -0.199839     -1.962350
  O      -4.333164      1.423248      0.345256
  O      -1.146999      3.700557      0.303163
  O       2.764768      3.631148      0.066153
  O       2.409419      1.041588     -2.849222
  O       0.516220     -2.236807     -3.929609
  O      -2.780248     -0.563479     -2.656276
  Pt      1.773045     -0.990748      0.504478
  Pt     -0.807440     -1.831161      0.568844
  Pt     -0.037472      0.306518      2.057002
  C       3.551489     -1.220141     -0.084766
  C       0.913746     -2.782824     -0.129611
  C      -2.131729     -3.071367      0.048067
  C      -1.764813     -0.864963      2.149943
  C      -0.435709      1.627833      3.345032
  C       2.047335      0.378339      2.055646
  O       4.645166     -1.366135     -0.438011
  O       1.242756     -3.827882     -0.573918
  O      -2.942049     -3.836390     -0.268618
  O      -2.738276     -0.974220      2.812254
  O      -0.677607      2.431078      4.144046
  O       2.928563      0.871459      2.670611
30
Coordinates from ORCA-job Pt3Ni3 E -6242.650899594009
  Ni     -1.573869      0.915615     -0.452015
  Ni      0.728250      1.633111     -0.539943
  Ni      0.004752     -0.263286     -1.843478
  C      -3.236627      1.210070      0.044568
  C      -0.818495      2.610296     -0.011630
  C       1.962702      2.828794     -0.159903
  C       1.525135      0.855660     -2.088162
  C       0.319384     -1.463252     -3.092300
  C      -1.896925     -0.201954     -1.959873
  O      -4.336085      1.413235      0.360818
  O      -1.147758      3.703208      0.309424
  O       2.773663      3.625600      0.080021
  O       2.416457      1.038854     -2.848432
  O       0.520549     -2.251109     -3.922344
  O      -2.783857     -0.569526     -2.655726
  Pt      1.768737     -0.985821      0.499868
  Pt     -0.807462     -1.824645      0.564104
  Pt     -0.039376      0.309831      2.049288
  C       3.536862     -1.214019     -0.085918
  C       0.908753     -2.768284     -0.126392
  C      -2.124450     -3.057500      0.046683
  C      -1.753119     -0.861645      2.139992
  C      -0.435796      1.623283      3.329573
  C       2.035474      0.373935      2.046536
  O       4.632935     -1.360595     -0.442866
  O       1.239356     -3.818898     -0.569830
  O      -2.935042     -3.825477     -0.274965
  O      -2.728859     -0.973593      2.807320
  O      -0.675614      2.431664      4.129134
  O       2.920322      0.866448      2.666448
30
Coordinates from ORCA-job Pt3Ni3 E -6242.651065002553
  Ni     -1.571949      0.911902     -0.447847
  Ni      0.730927      1.629795     -0.536498
  Ni      0.006792     -0.267023     -1.840659
  C      -3.235029      1.205149      0.051095
  C      -0.816447      2.607334     -0.009395
  C       1.966417      2.825139     -0.155231
  C       1.526472      0.853277     -2.086250
  C       0.321771     -1.468297     -3.089236
  C      -1.895147     -0.204137     -1.957244
  O      -4.333704      1.406026      0.370728
  O      -1.145834      3.700649      0.311285
  O       2.777642      3.620369      0.087995
  O       2.417602      1.036817     -2.847143
  O       0.524797     -2.257879     -3.916898
  O      -2.782518     -0.571284     -2.653287
  Pt      1.774132     -0.985283      0.495373
  Pt     -0.810099     -1.827149      0.560231
  Pt     -0.039137      0.314463      2.050250
  C       3.543558     -1.210949     -0.096481
  C       0.908985     -2.767061     -0.128670
  C      -2.130386     -3.058699      0.037790
  C      -1.750858     -0.861380      2.138739
  C      -0.436477      1.633903      3.328329
  C       2.036494      0.373879      2.043775
  O       4.640468     -1.344887     -0.455947
  O       1.239765     -3.818283     -0.572505
  O      -2.960617     -3.809127     -0.275239
  O      -2.726723     -0.973771      2.807120
  O      -0.702922      2.440155      4.121672
  O       2.922021      0.866354      2.664146
30
Coordinates from ORCA-job Pt3Ni3 E -6242.651103294107
  Ni     -1.572980      0.906049     -0.439089
  Ni      0.732189      1.624538     -0.526568
  Ni      0.008063     -0.274057     -1.832321
  C      -3.237766      1.197268      0.062589
  C      -0.817425      2.603329     -0.005097
  C       1.969736      2.819577     -0.141523
  C       1.526287      0.849553     -2.078805
  C       0.325377     -1.478967     -3.079786
  C      -1.894377     -0.207147     -1.952017
  O      -4.334433      1.393026      0.388015
  O      -1.146625      3.696896      0.313915
  O       2.781472      3.610380      0.108794
  O       2.417298      1.033072     -2.839434
  O       0.532033     -2.272654     -3.900985
  O      -2.780849     -0.573904     -2.648957
  Pt      1.779737     -0.982773      0.491713
  Pt     -0.821404     -1.829610      0.555965
  Pt     -0.046760      0.325495      2.054506
  C       3.553029     -1.202194     -0.109277
  C       0.905319     -2.764799     -0.127755
  C      -2.150914     -3.056615      0.025168
  C      -1.754747     -0.859142      2.138475
  C      -0.452363      1.655887      3.327422
  C       2.032590      0.375259      2.044356
  O       4.639564     -1.339795     -0.496152
  O       1.236279     -3.817025     -0.571403
  O      -2.946767     -3.820666     -0.338249
  O      -2.731297     -0.972095      2.807488
  O      -0.668498      2.493486      4.102669
  O       2.918230      0.867629      2.666340
30
Coordinates from ORCA-job Pt3Ni3 E -6242.651379067471
  Ni     -1.571111      0.903977     -0.437260
  Ni      0.734551      1.622917     -0.525518
  Ni      0.009922     -0.275900     -1.831840
  C      -3.235856      1.193144      0.067850
  C      -0.815446      2.601605     -0.004511
  C       1.973239      2.816877     -0.138204
  C       1.527586      0.848602     -2.078778
  C       0.327886     -1.482708     -3.078113
  C      -1.892660     -0.208141     -1.951116
  O      -4.331644      1.386305      0.397236
  O      -1.144435      3.694310      0.315808
  O       2.786619      3.604991      0.114511
  O       2.418862      1.031375     -2.838493
  O       0.534352     -2.278904     -3.896699
  O      -2.779188     -0.575754     -2.646662
  Pt      1.778020     -0.980627      0.487890
  Pt     -0.818397     -1.826170      0.552932
  Pt     -0.044343      0.325368      2.048663
  C       3.546318     -1.199304     -0.113485
  C       0.905591     -2.761739     -0.129833
  C      -2.144549     -3.049876      0.022633
  C      -1.750095     -0.858745      2.136034
  C      -0.447662      1.653532      3.317712
  C       2.032472      0.374557      2.040451
  O       4.635539     -1.325468     -0.496060
  O       1.236191     -3.813623     -0.573129
  O      -2.964919     -3.796153     -0.322069
  O      -2.725360     -0.972261      2.805803
  O      -0.699434      2.481853      4.091852
  O       2.917946      0.865963      2.662394
30
Coordinates from ORCA-job Pt3Ni3 E -6242.651499352011
  Ni     -1.570328      0.899841     -0.433459
  Ni      0.736695      1.620180     -0.521257
  Ni      0.012455     -0.279670     -1.829394
  C      -3.235791      1.185095      0.076499
  C      -0.815116      2.598812     -0.003625
  C       1.977087      2.812755     -0.128856
  C       1.528621      0.847709     -2.076588
  C       0.332943     -1.490087     -3.073514
  C      -1.890492     -0.209732     -1.950101
  O      -4.330446      1.373014      0.412554
  O      -1.144239      3.690768      0.317853
  O       2.793053      3.596355      0.129367
  O       2.420780      1.029863     -2.834874
  O       0.540492     -2.291067     -3.887095
  O      -2.776692     -0.578636     -2.644789
  Pt      1.775737     -0.977385      0.483903
  Pt     -0.817718     -1.822621      0.548798
  Pt     -0.044892      0.326812      2.042944
  C       3.541181     -1.192401     -0.121124
  C       0.905410     -2.758897     -0.131487
  C      -2.143637     -3.041842      0.015015
  C      -1.747752     -0.859175      2.134180
  C      -0.450076      1.657058      3.306119
  C       2.030512      0.374261      2.038635
  O       4.629168     -1.310695     -0.509785
  O       1.236015     -3.810400     -0.574661
  O      -2.980661     -3.772130     -0.323934
  O      -2.721994     -0.973698      2.804510
  O      -0.705722      2.491028      4.072903
  O       2.915407      0.864888      2.661259
30
Coordinates from ORCA-job Pt3Ni3 E -6242.651426434903
  Ni     -1.568682      0.897941     -0.425256
  Ni      0.742211      1.616732     -0.516293
  Ni      0.013380     -0.285308     -1.824825
  C      -3.234266      1.179912      0.095193
  C      -0.810615      2.598634     -0.004054
  C       1.988236      2.805214     -0.117897
  C       1.528236      0.844788     -2.076065
  C       0.334427     -1.503876     -3.064536
  C      -1.890346     -0.207629     -1.945753
  O      -4.326149      1.360870      0.444392
  O      -1.137880      3.690253      0.318571
  O       2.810695      3.579719      0.147716
  O       2.421104      1.023681     -2.833431
  O       0.541182     -2.314380     -3.869036
  O      -2.777421     -0.577836     -2.637688
  Pt      1.770893     -0.973759      0.478877
  Pt     -0.818647     -1.813809      0.548171
  Pt     -0.041797      0.331385      2.036049
  C       3.530697     -1.185745     -0.135918
  C       0.901335     -2.756940     -0.130230
  C      -2.149956     -3.022119      0.011846
  C      -1.743468     -0.855148      2.138806
  C      -0.443932      1.669539      3.288111
  C       2.032329      0.373469      2.036792
  O       4.617369     -1.287755     -0.533140
  O       1.229448     -3.808445     -0.573065
  O      -2.956660     -3.766030     -0.368829
  O      -2.715206     -0.968691      2.811331
  O      -0.764399      2.493194      4.041695
  O       2.917879      0.862137      2.658464
30
Coordinates from ORCA-job Pt3Ni3 E -6242.651686614884
  Ni     -1.570307      0.893831     -0.425332
  Ni      0.741489      1.616377     -0.513068
  Ni      0.016334     -0.287024     -1.825059
  C      -3.237288      1.170687      0.097295
  C      -0.814820      2.596628     -0.005906
  C       1.987199      2.804779     -0.108534
  C       1.528647      0.847910     -2.074677
  C       0.342061     -1.507597     -3.063201
  C      -1.887755     -0.208680     -1.949661
  O      -4.328960      1.345964      0.450664
  O      -1.143756      3.687684      0.317011
  O       2.810553      3.576697      0.162620
  O       2.422723      1.028038     -2.830395
  O       0.551760     -2.321131     -3.864152
  O      -2.773603     -0.580029     -2.642630
  Pt      1.770361     -0.972562      0.479214
  Pt     -0.818052     -1.815486      0.545588
  Pt     -0.045373      0.329314      2.035444
  C       3.530559     -1.177537     -0.139261
  C       0.904866     -2.758777     -0.130872
  C      -2.149408     -3.021893      0.001198
  C      -1.745925     -0.861412      2.139195
  C      -0.454425      1.671822      3.282619
  C       2.030113      0.373041      2.041614
  O       4.611855     -1.285798     -0.549599
  O       1.234751     -3.809164     -0.574741
  O      -2.986854     -3.741169     -0.360362
  O      -2.718046     -0.976733      2.810575
  O      -0.722831      2.519704      4.029841
  O       2.914130      0.862515      2.664572
30
Coordinates from ORCA-job Pt3Ni3 E -6242.651690149683
  Ni     -1.571718      0.892878     -0.425304
  Ni      0.741815      1.615016     -0.512888
  Ni      0.015506     -0.288853     -1.826351
  C      -3.238477      1.167965      0.100774
  C      -0.815389      2.596442     -0.008795
  C       1.989359      2.801125     -0.104932
  C       1.527052      0.847840     -2.076633
  C       0.341816     -1.511882     -3.062694
  C      -1.888843     -0.207070     -1.952127
  O      -4.329228      1.340211      0.458508
  O      -1.143980      3.687964      0.313798
  O       2.814375      3.570013      0.169869
  O       2.421454      1.027956     -2.832383
  O       0.552530     -2.328107     -3.860674
  O      -2.774995     -0.577873     -2.645431
  Pt      1.769352     -0.975693      0.478975
  Pt     -0.820495     -1.817587      0.545798
  Pt     -0.046405      0.327109      2.036911
  C       3.529401     -1.178282     -0.146177
  C       0.902945     -2.762152     -0.130263
  C      -2.155179     -3.020110     -0.004022
  C      -1.746727     -0.864646      2.141838
  C      -0.457058      1.675364      3.279442
  C       2.029827      0.368535      2.043750
  O       4.620986     -1.249477     -0.537101
  O       1.232473     -3.812466     -0.575212
  O      -2.992873     -3.736640     -0.370581
  O      -2.719010     -0.979759      2.813432
  O      -0.702773      2.534434      4.021733
  O       2.914259      0.857746      2.666739
30
Coordinates from ORCA-job Pt3Ni3 E -6242.651782216880
  Ni     -1.574075      0.891984     -0.424548
  Ni      0.743133      1.618209     -0.510193
  Ni      0.018824     -0.289655     -1.827451
  C      -3.241006      1.158112      0.110454
  C      -0.819440      2.599820     -0.017312
  C       1.993081      2.800223     -0.091494
  C       1.525605      0.855721     -2.079177
  C       0.350655     -1.520108     -3.057080
  C      -1.886330     -0.201650     -1.958626
  O      -4.329463      1.319068      0.480426
  O      -1.149958      3.692176      0.303227
  O       2.821061      3.561912      0.194548
  O       2.420981      1.037060     -2.834691
  O       0.567211     -2.344306     -3.845355
  O      -2.771945     -0.572908     -2.653686
  Pt      1.771782     -0.975597      0.484420
  Pt     -0.820761     -1.820765      0.550524
  Pt     -0.047713      0.326114      2.044579
  C       3.533506     -1.163835     -0.156416
  C       0.906835     -2.765521     -0.122207
  C      -2.161844     -3.014706     -0.016649
  C      -1.745170     -0.872448      2.152270
  C      -0.465655      1.691795      3.271735
  C       2.030068      0.365495      2.054938
  O       4.605038     -1.273498     -0.591900
  O       1.238261     -3.815022     -0.569600
  O      -3.004388     -3.720736     -0.392733
  O      -2.718269     -0.988528      2.823809
  O      -0.704148      2.565147      3.999723
  O       2.914124      0.856446      2.678463
30
Coordinates from ORCA-job Pt3Ni3 E -6242.651865876070
  Ni     -1.573731      0.893045     -0.424702
  Ni      0.743903      1.618464     -0.511407
  Ni      0.018260     -0.289423     -1.828293
  C      -3.239811      1.158790      0.112243
  C      -0.818204      2.600626     -0.018446
  C       1.994731      2.798982     -0.092299
  C       1.525163      0.855521     -2.080635
  C       0.349338     -1.520817     -3.056771
  C      -1.886814     -0.200327     -1.958702
  O      -4.327767      1.319434      0.483652
  O      -1.148147      3.692661      0.301888
  O       2.823541      3.559527      0.194143
  O       2.420066      1.036248     -2.836011
  O       0.565324     -2.345967     -3.844119
  O      -2.772482     -0.571152     -2.653044
  Pt      1.769970     -0.975583      0.483994
  Pt     -0.819717     -1.818948      0.551148
  Pt     -0.045914      0.325333      2.042881
  C       3.527788     -1.165063     -0.155536
  C       0.905536     -2.765146     -0.122062
  C      -2.159363     -3.011365     -0.013790
  C      -1.743514     -0.871538      2.152943
  C      -0.461167      1.689339      3.269394
  C       2.030920      0.364552      2.053589
  O       4.602285     -1.266664     -0.585131
  O       1.236091     -3.814437     -0.569358
  O      -2.996835     -3.720891     -0.394229
  O      -2.715887     -0.987164      2.824815
  O      -0.718781      2.557074      3.997453
  O       2.915218      0.854890      2.676389
30
Coordinates from ORCA-job Pt3Ni3 E -6242.651914518797
  Ni     -1.574590      0.894296     -0.425704
  Ni      0.744748      1.619735     -0.512913
  Ni      0.017957     -0.289205     -1.830676
  C      -3.239001      1.156475      0.116533
  C      -0.818330      2.602682     -0.023449
  C       1.997340      2.796216     -0.089715
  C       1.523474      0.857865     -2.084104
  C       0.349538     -1.523826     -3.055074
  C      -1.887115     -0.196570     -1.961889
  O      -4.325601      1.313243      0.493306
  O      -1.148223      3.694968      0.295130
  O       2.827623      3.553305      0.201301
  O       2.417634      1.038956     -2.839878
  O       0.567195     -2.352387     -3.838262
  O      -2.772733     -0.566040     -2.656584
  Pt      1.768913     -0.977162      0.485772
  Pt     -0.819462     -1.819325      0.553783
  Pt     -0.044851      0.323060      2.044656
  C       3.524300     -1.164203     -0.157966
  C       0.904118     -2.766266     -0.119098
  C      -2.159502     -3.007901     -0.014569
  C      -1.741211     -0.873517      2.156779
  C      -0.459241      1.690316      3.265711
  C       2.031298      0.360822      2.055470
  O       4.600391     -1.255003     -0.585804
  O       1.234105     -3.815206     -0.567420
  O      -2.994918     -3.716523     -0.400967
  O      -2.713348     -0.988805      2.828952
  O      -0.726546      2.558960      3.989075
  O       2.916035      0.851042      2.677601
30
Coordinates from ORCA-job Pt3Ni3 E -6242.651954946075
  Ni     -1.576003      0.895463     -0.427083
  Ni      0.745762      1.621713     -0.514442
  Ni      0.018125     -0.288991     -1.833927
  C      -3.237744      1.151320      0.123009
  C      -0.819278      2.605321     -0.030947
  C       2.000471      2.792030     -0.084497
  C       1.521039      0.861967     -2.088574
  C       0.351123     -1.528192     -3.051851
  C      -1.886857     -0.191325     -1.966872
  O      -4.322384      1.301633      0.507865
  O      -1.149672      3.698292      0.284027
  O       2.832545      3.544019      0.214369
  O       2.413840      1.044482     -2.845304
  O       0.572201     -2.361952     -3.828472
  O      -2.772192     -0.558243     -2.662947
  Pt      1.768435     -0.979309      0.488802
  Pt     -0.819385     -1.820925      0.557467
  Pt     -0.044124      0.320185      2.048463
  C       3.520932     -1.161471     -0.161589
  C       0.902772     -2.768074     -0.115038
  C      -2.160302     -3.004367     -0.017484
  C      -1.738709     -0.877018      2.162459
  C      -0.458861      1.693727      3.261474
  C       2.031745      0.355986      2.059053
  O       4.596108     -1.243528     -0.593335
  O       1.232251     -3.816414     -0.565310
  O      -2.996311     -3.708438     -0.410752
  O      -2.710910     -0.992066      2.834767
  O      -0.731645      2.567695      3.976320
  O       2.917022      0.846480      2.680346
30
Coordinates from ORCA-job Pt3Ni3 E -6242.651979766602
  Ni     -1.576936      0.895761     -0.427808
  Ni      0.746397      1.622940     -0.515013
  Ni      0.018574     -0.289041     -1.835871
  C      -3.236186      1.146193      0.128160
  C      -0.820167      2.606634     -0.036122
  C       2.002216      2.788213     -0.079695
  C       1.519247      0.864969     -2.091141
  C       0.352876     -1.531285     -3.048471
  C      -1.886162     -0.187920     -1.970173
  O      -4.319397      1.291430      0.519081
  O      -1.151301      3.700408      0.274987
  O       2.835383      3.536351      0.225870
  O       2.410421      1.049485     -2.849199
  O       0.576938     -2.369105     -3.819906
  O      -2.771121     -0.552019     -2.668077
  Pt      1.768339     -0.980556      0.490974
  Pt     -0.819609     -1.822053      0.559849
  Pt     -0.044170      0.318654      2.051178
  C       3.519841     -1.159169     -0.164184
  C       0.901724     -2.769047     -0.112950
  C      -2.161120     -3.002508     -0.019990
  C      -1.737732     -0.878986      2.165917
  C      -0.459645      1.696597      3.258562
  C       2.031825      0.353370      2.061423
  O       4.593051     -1.237213     -0.601656
  O       1.230717     -3.816895     -0.564925
  O      -2.999101     -3.701858     -0.417536
  O      -2.710143     -0.993894      2.838097
  O      -0.732182      2.576278      3.966520
  O       2.917421      0.844263      2.682098
30
Coordinates from ORCA-job Pt3Ni3 E -6242.652001750810
  Ni     -1.577343      0.895255     -0.427826
  Ni      0.746930      1.623450     -0.514803
  Ni      0.019288     -0.289438     -1.836799
  C      -3.233856      1.140472      0.133105
  C      -0.820803      2.606799     -0.039711
  C       2.003132      2.783951     -0.074713
  C       1.517830      0.867045     -2.092282
  C       0.354841     -1.533663     -3.044467
  C      -1.885008     -0.185811     -1.972059
  O      -4.315880      1.281159      0.529294
  O      -1.152944      3.701647      0.266528
  O       2.837193      3.528572      0.237350
  O       2.406767      1.054363     -2.852272
  O       0.581656     -2.375169     -3.811234
  O      -2.769497     -0.546235     -2.672457
  Pt      1.768284     -0.981140      0.492187
  Pt     -0.820015     -1.822576      0.561176
  Pt     -0.044515      0.318298      2.052806
  C       3.519070     -1.157176     -0.166210
  C       0.900738     -2.769319     -0.113003
  C      -2.161972     -3.001325     -0.022111
  C      -1.737998     -0.879449      2.167693
  C      -0.460944      1.699777      3.256337
  C       2.031941      0.352620      2.062502
  O       4.589906     -1.233698     -0.609882
  O       1.229036     -3.816678     -0.566712
  O      -3.001925     -3.696515     -0.422922
  O      -2.710671     -0.994213      2.839570
  O      -0.731033      2.585036      3.958379
  O       2.917791      0.843958      2.682537
30
Coordinates from ORCA-job Pt3Ni3 E -6242.652016825265
  Ni     -1.577062      0.894159     -0.427122
  Ni      0.747247      1.623055     -0.513937
  Ni      0.019997     -0.290072     -1.836451
  C      -3.231538      1.136068      0.136453
  C      -0.820898      2.605837     -0.040714
  C       2.003110      2.780515     -0.070936
  C       1.517166      0.867560     -2.091823
  C       0.356429     -1.534801     -3.041074
  C      -1.883828     -0.185532     -1.971980
  O      -4.312858      1.273850      0.535975
  O      -1.153943      3.701675      0.261171
  O       2.837932      3.522605      0.245568
  O       2.403880      1.057628     -2.853808
  O       0.584740     -2.378777     -3.804870
  O      -2.767905     -0.542530     -2.674734
  Pt      1.767930     -0.980877      0.491994
  Pt     -0.820485     -1.821913      0.561144
  Pt     -0.044908      0.319154      2.052397
  C       3.518915     -1.156236     -0.167515
  C       0.899977     -2.768680     -0.115123
  C      -2.162788     -3.000449     -0.022860
  C      -1.739243     -0.878036      2.167204
  C      -0.461942      1.701924      3.254565
  C       2.031928      0.353908      2.061862
  O       4.588291     -1.232992     -0.614784
  O       1.227506     -3.815721     -0.569997
  O      -3.003505     -3.694011     -0.424967
  O      -2.712025     -0.992637      2.838820
  O      -0.730005      2.589828      3.954093
  O       2.917884      0.845498      2.681447
30
Coordinates from ORCA-job Pt3Ni3 E -6242.652024833216
  Ni     -1.576439      0.893106     -0.426334
  Ni      0.747331      1.622314     -0.513110
  Ni      0.020472     -0.290562     -1.835639
  C      -3.230111      1.133932      0.137749
  C      -0.820668      2.604656     -0.040166
  C       2.002640      2.778795     -0.068989
  C       1.517101      0.867152     -2.090831
  C       0.357418     -1.534900     -3.039382
  C      -1.883043     -0.186249     -1.971001
  O      -4.311121      1.270315      0.538851
  O      -1.154281      3.701144      0.258970
  O       2.838198      3.519336      0.249494
  O       2.402279      1.059085     -2.854224
  O       0.585975     -2.380035     -3.801943
  O      -2.766872     -0.541007     -2.675306
  Pt      1.767447     -0.980302      0.490927
  Pt     -0.820807     -1.820818      0.560331
  Pt     -0.044983      0.320403      2.050904
  C       3.518557     -1.156233     -0.168053
  C       0.899688     -2.767722     -0.117852
  C      -2.163478     -2.999824     -0.022421
  C      -1.740492     -0.876073      2.165656
  C      -0.462270      1.703059      3.253636
  C       2.031950      0.355868      2.060399
  O       4.587822     -1.234072     -0.615341
  O       1.226683     -3.814640     -0.573213
  O      -3.003783     -3.694185     -0.423962
  O      -2.713210     -0.990550      2.837234
  O      -0.729948      2.590538      3.953827
  O       2.917941      0.847468      2.679790
30
Coordinates from ORCA-job Pt3Ni3 E -6242.652029114571
  Ni     -1.575950      0.892555     -0.426058
  Ni      0.747232      1.621882     -0.512822
  Ni      0.020686     -0.290658     -1.835219
  C      -3.229657      1.133361      0.137780
  C      -0.820528      2.604037     -0.039764
  C       2.002219      2.778390     -0.068171
  C       1.517120      0.866922     -2.090399
  C       0.358046     -1.534664     -3.039066
  C      -1.882695     -0.186763     -1.970468
  O      -4.310438      1.268846      0.539875
  O      -1.154436      3.700862      0.257931
  O       2.838490      3.517787      0.251177
  O       2.401394      1.059926     -2.854623
  O       0.586397     -2.380387     -3.801065
  O      -2.766374     -0.540317     -2.675623
  Pt      1.767020     -0.979904      0.489998
  Pt     -0.821016     -1.819945      0.559669
  Pt     -0.044848      0.321266      2.049551
  C       3.518426     -1.156700     -0.168153
  C       0.899621     -2.766943     -0.119748
  C      -2.164053     -2.999403     -0.021315
  C      -1.741162     -0.874610      2.164379
  C      -0.462093      1.703165      3.253184
  C       2.031918      0.357259      2.059226
  O       4.588280     -1.235481     -0.613755
  O       1.226360     -3.813844     -0.575227
  O      -3.003783     -3.695291     -0.421307
  O      -2.713727     -0.988991      2.836114
  O      -0.730364      2.588879      3.955294
  O       2.917914      0.848764      2.678605
30
Coordinates from ORCA-job Pt3Ni3 E -6242.652033334396
  Ni     -1.575556      0.892266     -0.426301
  Ni      0.747007      1.621798     -0.513018
  Ni      0.020851     -0.290416     -1.835345
  C      -3.229593      1.132947      0.137569
  C      -0.820628      2.603910     -0.040271
  C       2.001942      2.778326     -0.067236
  C       1.516918      0.867330     -2.090724
  C       0.358914     -1.534512     -3.039281
  C      -1.882442     -0.186722     -1.970746
  O      -4.309921      1.266848      0.541375
  O      -1.154862      3.701075      0.255857
  O       2.839174      3.516003      0.253542
  O       2.400222      1.061476     -2.855806
  O       0.587236     -2.381121     -3.800281
  O      -2.765921     -0.539030     -2.676807
  Pt      1.766623     -0.979679      0.489167
  Pt     -0.821240     -1.819293      0.559174
  Pt     -0.044549      0.321936      2.048427
  C       3.518170     -1.157383     -0.168004
  C       0.899540     -2.766189     -0.121372
  C      -2.164780     -2.999130     -0.019657
  C      -1.741475     -0.873419      2.163422
  C      -0.461692      1.703048      3.253101
  C       2.031918      0.358265      2.058208
  O       4.588866     -1.237192     -0.611245
  O       1.226109     -3.813064     -0.577009
  O      -3.004193     -3.696661     -0.417331
  O      -2.713812     -0.987694      2.835485
  O      -0.730777      2.586638      3.957484
  O       2.917948      0.849640      2.677622
30
Coordinates from ORCA-job Pt3Ni3 E -6242.652038488479
  Ni     -1.575269      0.892241     -0.427279
  Ni      0.746592      1.622198     -0.513852
  Ni      0.021026     -0.289717     -1.836242
  C      -3.229795      1.132107      0.137471
  C      -0.821136      2.604414     -0.042331
  C       2.001883      2.778252     -0.065566
  C       1.516260      0.868829     -2.092157
  C       0.360359     -1.534662     -3.039774
  C      -1.882169     -0.185799     -1.972275
  O      -4.309261      1.263077      0.544395
  O      -1.155874      3.702056      0.251424
  O       2.840394      3.513094      0.258241
  O       2.398143      1.064633     -2.858452
  O       0.589217     -2.382893     -3.798736
  O      -2.765296     -0.536312     -2.679664
  Pt      1.766237     -0.979575      0.488437
  Pt     -0.821621     -1.818781      0.558875
  Pt     -0.044174      0.322528      2.047516
  C       3.518100     -1.158399     -0.167548
  C       0.899174     -2.765321     -0.122911
  C      -2.165801     -2.999095     -0.017072
  C      -1.741507     -0.872271      2.162788
  C      -0.461051      1.702565      3.253379
  C       2.031923      0.358954      2.057246
  O       4.589777     -1.239440     -0.608068
  O       1.225574     -3.812126     -0.578901
  O      -3.005453     -3.698217     -0.411353
  O      -2.713515     -0.986390      2.835390
  O      -0.730763      2.583867      3.960303
  O       2.918019      0.850183      2.676718
30
Coordinates from ORCA-job Pt3Ni3 E -6242.652043285600
  Ni     -1.575189      0.892520     -0.428863
  Ni      0.746066      1.623066     -0.515209
  Ni      0.021176     -0.288674     -1.837799
  C      -3.230115      1.130675      0.137813
  C      -0.822022      2.605545     -0.045781
  C       2.002169      2.777934     -0.063349
  C       1.515199      0.871266     -2.094516
  C       0.362080     -1.535226     -3.040248
  C      -1.881907     -0.184047     -1.974910
  O      -4.308539      1.258067      0.548438
  O      -1.157360      3.703715      0.245208
  O       2.841719      3.509594      0.264784
  O       2.395504      1.068896     -2.862121
  O       0.592246     -2.385424     -3.796527
  O      -2.764594     -0.532585     -2.683784
  Pt      1.766016     -0.979553      0.487986
  Pt     -0.822093     -1.818572      0.558813
  Pt     -0.043905      0.322950      2.047192
  C       3.518152     -1.159521     -0.166731
  C       0.898403     -2.764552     -0.123986
  C      -2.166772     -2.999570     -0.014221
  C      -1.741269     -0.871450      2.162735
  C      -0.460341      1.701977      3.254321
  C       2.031996      0.359073      2.056526
  O       4.590543     -1.241841     -0.605264
  O       1.224661     -3.811233     -0.580503
  O      -3.007238     -3.699677     -0.405034
  O      -2.712939     -0.985414      2.835923
  O      -0.729841      2.581878      3.963073
  O       2.918190      0.850184      2.676035
30
Coordinates from ORCA-job Pt3Ni3 E -6242.652046390886
  Ni     -1.575280      0.892920     -0.430310
  Ni      0.745609      1.623934     -0.516442
  Ni      0.021234     -0.287755     -1.839189
  C      -3.230311      1.129175      0.138474
  C      -0.822879      2.606723     -0.048979
  C       2.002608      2.777388     -0.061510
  C       1.514212      0.873498     -2.096645
  C       0.363304     -1.535908     -3.040364
  C      -1.881742     -0.182369     -1.977352
  O      -4.308080      1.254167      0.551430
  O      -1.158667      3.705251      0.240029
  O       2.842335      3.507097      0.270383
  O       2.393429      1.072364     -2.865134
  O       0.595040     -2.387406     -3.794653
  O      -2.764095     -0.529611     -2.687231
  Pt      1.765980     -0.979456      0.487832
  Pt     -0.822518     -1.818508      0.558874
  Pt     -0.043940      0.323239      2.047364
  C       3.518443     -1.160428     -0.165896
  C       0.897405     -2.764099     -0.124388
  C      -2.167225     -3.000367     -0.012194
  C      -1.741059     -0.870974      2.163050
  C      -0.459749      1.701416      3.255521
  C       2.032101      0.358829      2.056109
  O       4.591055     -1.243731     -0.603825
  O       1.223572     -3.810670     -0.581339
  O      -3.008444     -3.700859     -0.400811
  O      -2.712526     -0.984851      2.836591
  O      -0.728197      2.581117      3.964992
  O       2.918378      0.849872      2.675614
30
Coordinates from ORCA-job Pt3Ni3 E -6242.652048176766
  Ni     -1.575366      0.893191     -0.431161
  Ni      0.745296      1.624435     -0.517151
  Ni      0.021228     -0.287219     -1.839904
  C      -3.230288      1.128028      0.139117
  C      -0.823433      2.607474     -0.050888
  C       2.002920      2.776800     -0.060443
  C       1.513611      0.874817     -2.097838
  C       0.363856     -1.536378     -3.040152
  C      -1.881659     -0.181416     -1.978763
  O      -4.307955      1.252329      0.552530
  O      -1.159456      3.706146      0.237255
  O       2.842166      3.506056      0.273624
  O       2.392396      1.074165     -2.866671
  O       0.596838     -2.388206     -3.793681
  O      -2.763857     -0.528230     -2.689018
  Pt      1.765964     -0.979212      0.487686
  Pt     -0.822805     -1.818336      0.558845
  Pt     -0.044144      0.323548      2.047578
  C       3.518594     -1.161037     -0.165345
  C       0.896508     -2.763869     -0.124518
  C      -2.167197     -3.001090     -0.011248
  C      -1.741048     -0.870608      2.163292
  C      -0.459272      1.701180      3.256589
  C       2.032216      0.358642      2.055765
  O       4.591184     -1.245120     -0.603306
  O       1.222630     -3.810382     -0.581672
  O      -3.008548     -3.701978     -0.398965
  O      -2.712452     -0.984483      2.836922
  O      -0.726497      2.581135      3.966291
  O       2.918567      0.849618      2.675229
