30
Coordinates from ORCA-job Pt3Pt3 E -2076.516449595171
  Pt     -1.770565      1.062421     -0.532937
  Pt      0.810159      1.845071     -0.640777
  Pt     -0.018747     -0.271428     -2.094295
  C      -3.524303      1.333390      0.076379
  C      -0.869443      2.836121      0.074012
  C       2.164939      3.053616     -0.164922
  C       1.719622      0.855123     -2.228213
  C       0.319876     -1.601940     -3.373573
  C      -2.098468     -0.301085     -2.064023
  O      -4.598285      1.508558      0.435321
  O      -1.170344      3.886157      0.487107
  O       2.990323      3.797494      0.114642
  O       2.661227      0.956849     -2.911643
  O       0.518286     -2.403646     -4.167753
  O      -2.985666     -0.757360     -2.671285
  Pt      1.786224     -1.021970      0.564314
  Pt     -0.775338     -1.869678      0.613666
  Pt     -0.028959      0.257519      2.097474
  C       3.558721     -1.243479     -0.009666
  C       0.946466     -2.809397     -0.077773
  C      -2.083425     -3.111555      0.095069
  C      -1.738738     -0.921820      2.190011
  C      -0.440914      1.573290      3.370848
  C       2.046258      0.338351      2.116137
  O       4.643709     -1.389862     -0.347803
  O       1.282098     -3.846298     -0.497353
  O      -2.878332     -3.876923     -0.213393
  O      -2.687105     -1.055962      2.858350
  O      -0.689366      2.369598      4.156332
  O       2.910089      0.808845      2.745745
30
Coordinates from ORCA-job Pt3Pt3 E -2076.521833419905
  Pt     -1.791687      1.066064     -0.524421
  Pt      0.826721      1.858930     -0.635324
  Pt     -0.015196     -0.288637     -2.109289
  C      -3.553071      1.335377      0.093491
  C      -0.873466      2.848393      0.081065
  C       2.190196      3.069612     -0.152086
  C       1.732148      0.855365     -2.235712
  C       0.326368     -1.630159     -3.390578
  C      -2.108271     -0.308313     -2.071216
  O      -4.637368      1.504841      0.460969
  O      -1.177971      3.911254      0.496606
  O       3.023479      3.818049      0.139211
  O       2.682992      0.960035     -2.928717
  O       0.532450     -2.444316     -4.186868
  O      -3.005102     -0.767720     -2.687594
  Pt      1.807670     -1.023812      0.556952
  Pt     -0.791293     -1.885169      0.606715
  Pt     -0.034915      0.273935      2.112620
  C       3.589009     -1.240950     -0.023567
  C       0.949025     -2.822467     -0.084819
  C      -2.106446     -3.130203      0.079336
  C      -1.751280     -0.920872      2.198747
  C      -0.450551      1.600282      3.387650
  C       2.056720      0.344343      2.121890
  O       4.682617     -1.386048     -0.373414
  O       1.288289     -3.872192     -0.506838
  O      -2.913157     -3.897181     -0.237399
  O      -2.708819     -1.057266      2.876904
  O      -0.699404      2.411051      4.175116
  O       2.930314      0.817774      2.760569
30
Coordinates from ORCA-job Pt3Pt3 E -2076.522684739822
  Pt     -1.774357      1.058335     -0.523983
  Pt      0.816575      1.843678     -0.633354
  Pt     -0.016152     -0.282457     -2.092156
  C      -3.530614      1.325980      0.091357
  C      -0.864965      2.821985      0.071480
  C       2.174094      3.051808     -0.149766
  C       1.709650      0.852013     -2.218832
  C       0.326311     -1.619326     -3.369463
  C      -2.087016     -0.297781     -2.055200
  O      -4.618965      1.497394      0.467297
  O      -1.171793      3.892553      0.488309
  O       3.016415      3.799649      0.144210
  O       2.665983      0.958829     -2.917547
  O       0.530501     -2.442759     -4.166607
  O      -2.990070     -0.758468     -2.676813
  Pt      1.790007     -1.017064      0.555321
  Pt     -0.782061     -1.869232      0.605379
  Pt     -0.032892      0.267627      2.094954
  C       3.565259     -1.235103     -0.024413
  C       0.940832     -2.796106     -0.075466
  C      -2.094117     -3.109656      0.080661
  C      -1.728878     -0.917507      2.181333
  C      -0.445264      1.590301      3.366070
  C       2.035118      0.333560      2.106023
  O       4.666031     -1.373699     -0.376894
  O       1.282416     -3.853695     -0.498313
  O      -2.903522     -3.880672     -0.244281
  O      -2.691844     -1.055819      2.865293
  O      -0.701246      2.407056      4.155095
  O       2.914563      0.808574      2.750305
30
Coordinates from ORCA-job Pt3Pt3 E -2076.523215044104
  Pt     -1.782353      1.059159     -0.520763
  Pt      0.823316      1.848921     -0.630742
  Pt     -0.014343     -0.289132     -2.097530
  C      -3.536853      1.325401      0.096950
  C      -0.867095      2.828223      0.076231
  C       2.181275      3.054386     -0.145405
  C       1.717320      0.851952     -2.221967
  C       0.328102     -1.627388     -3.371803
  C      -2.093126     -0.302624     -2.058323
  O      -4.622828      1.492743      0.471916
  O      -1.173381      3.896373      0.492284
  O       3.019731      3.800626      0.151264
  O       2.671591      0.958607     -2.919113
  O       0.535243     -2.449054     -4.165429
  O      -2.994300     -0.762325     -2.678481
  Pt      1.798182     -1.017655      0.552069
  Pt     -0.788311     -1.874596      0.602597
  Pt     -0.035039      0.274177      2.100247
  C       3.571899     -1.233512     -0.029582
  C       0.942362     -2.802448     -0.080179
  C      -2.100127     -3.112981      0.075639
  C      -1.736368     -0.917125      2.184666
  C      -0.448635      1.597942      3.368602
  C       2.041712      0.338224      2.108867
  O       4.668595     -1.372580     -0.384255
  O       1.283026     -3.857762     -0.502169
  O      -2.909910     -3.879305     -0.248268
  O      -2.697339     -1.055127      2.866991
  O      -0.701645      2.414688      4.153977
  O       2.919299      0.812190      2.751705
30
Coordinates from ORCA-job Pt3Pt3 E -2076.523274907323
  Pt     -1.782363      1.057565     -0.518725
  Pt      0.824498      1.847898     -0.628596
  Pt     -0.013305     -0.291555     -2.096148
  C      -3.537519      1.322018      0.101468
  C      -0.866528      2.826356      0.076678
  C       2.183361      3.052737     -0.140213
  C       1.716733      0.851380     -2.220516
  C       0.330740     -1.632334     -3.369004
  C      -2.092019     -0.302891     -2.057059
  O      -4.622112      1.487100      0.479996
  O      -1.172987      3.894407      0.492339
  O       3.022469      3.796205      0.159749
  O       2.670507      0.958550     -2.917935
  O       0.538796     -2.456545     -4.159076
  O      -2.993083     -0.761887     -2.677541
  Pt      1.798198     -1.016236      0.549631
  Pt     -0.789650     -1.873567      0.600626
  Pt     -0.035715      0.276526      2.098607
  C       3.572265     -1.230869     -0.035049
  C       0.941580     -2.800795     -0.080669
  C      -2.103339     -3.110730      0.071506
  C      -1.735829     -0.916326      2.183278
  C      -0.449642      1.603030      3.365593
  C       2.040748      0.338294      2.107380
  O       4.667885     -1.366792     -0.392759
  O       1.282065     -3.856244     -0.501963
  O      -2.913731     -3.874296     -0.255727
  O      -2.696313     -1.054483      2.865931
  O      -0.703915      2.421883      4.147680
  O       2.918204      0.811604      2.750514
30
Coordinates from ORCA-job Pt3Pt3 E -2076.523403823806
  Pt     -1.781746      1.052005     -0.512351
  Pt      0.827875      1.844055     -0.621737
  Pt     -0.009953     -0.299108     -2.090789
  C      -3.535510      1.309859      0.116037
  C      -0.864867      2.821023      0.078173
  C       2.188031      3.044086     -0.123479
  C       1.715078      0.849570     -2.216507
  C       0.338491     -1.646554     -3.355958
  C      -2.088663     -0.303821     -2.053391
  O      -4.616124      1.467061      0.507000
  O      -1.171806      3.889086      0.493640
  O       3.029604      3.778718      0.188531
  O       2.667977      0.957818     -2.915010
  O       0.550402     -2.479897     -4.134371
  O      -2.989842     -0.761341     -2.674844
  Pt      1.797380     -1.011589      0.541671
  Pt     -0.793600     -1.869535      0.594400
  Pt     -0.037922      0.283939      2.092503
  C       3.569462     -1.220695     -0.052591
  C       0.939243     -2.795963     -0.082302
  C      -2.110925     -3.100367      0.057989
  C      -1.734431     -0.913863      2.179232
  C      -0.452933      1.617738      3.352205
  C       2.037809      0.338359      2.102982
  O       4.661890     -1.346412     -0.421458
  O       1.279306     -3.852106     -0.502382
  O      -2.924113     -3.854844     -0.280807
  O      -2.694241     -1.052077      2.862874
  O      -0.711110      2.444552      4.123567
  O       2.915237      0.810305      2.747170
30
Coordinates from ORCA-job Pt3Pt3 E -2076.523495221772
  Pt     -1.780489      1.048031     -0.508612
  Pt      0.829475      1.841040     -0.617504
  Pt     -0.007531     -0.303664     -2.086550
  C      -3.532385      1.299378      0.128646
  C      -0.864007      2.818714      0.078043
  C       2.191243      3.035563     -0.109521
  C       1.713736      0.849476     -2.215656
  C       0.344942     -1.658155     -3.343550
  C      -2.086734     -0.303467     -2.052673
  O      -4.609419      1.449434      0.532079
  O      -1.171024      3.886596      0.494187
  O       3.035645      3.761854      0.214179
  O       2.666078      0.958032     -2.915018
  O       0.560326     -2.500698     -4.111052
  O      -2.987955     -0.760238     -2.674756
  Pt      1.795798     -1.008575      0.536484
  Pt     -0.795976     -1.866322      0.590846
  Pt     -0.039263      0.288547      2.087663
  C       3.565757     -1.211177     -0.067331
  C       0.937996     -2.794163     -0.082198
  C      -2.116432     -3.090796      0.046436
  C      -1.733408     -0.913190      2.178209
  C      -0.455958      1.629546      3.339542
  C       2.036125      0.337216      2.101508
  O       4.655505     -1.327132     -0.447172
  O       1.277719     -3.850651     -0.501992
  O      -2.932231     -3.837099     -0.304013
  O      -2.692991     -1.050938      2.862389
  O      -0.717995      2.464313      4.100975
  O       2.913451      0.808527      2.746412
30
Coordinates from ORCA-job Pt3Pt3 E -2076.523626056132
  Pt     -1.778799      1.044781     -0.506881
  Pt      0.830143      1.838801     -0.615193
  Pt     -0.005298     -0.306534     -2.083072
  C      -3.526716      1.286393      0.144689
  C      -0.863880      2.819151      0.074943
  C       2.194812      3.023663     -0.092814
  C       1.711731      0.852108     -2.218780
  C       0.352492     -1.671988     -3.326514
  C      -2.085592     -0.300713     -2.055707
  O      -4.598571      1.426092      0.566335
  O      -1.170558      3.886416      0.492987
  O       3.043413      3.737792      0.247949
  O       2.663485      0.960218     -2.919058
  O       0.572814     -2.527899     -4.078255
  O      -2.986691     -0.757177     -2.678198
  Pt      1.793398     -1.006836      0.532777
  Pt     -0.797775     -1.863712      0.589417
  Pt     -0.040157      0.291719      2.083551
  C       3.559606     -1.198318     -0.085354
  C       0.937368     -2.795275     -0.079051
  C      -2.121822     -3.078240      0.031970
  C      -1.731860     -0.915033      2.180825
  C      -0.460467      1.643413      3.322610
  C       2.035269      0.333340      2.103443
  O       4.645415     -1.300291     -0.481360
  O       1.276656     -3.851700     -0.499467
  O      -2.941231     -3.812901     -0.335560
  O      -2.691531     -1.051573      2.865130
  O      -0.727943      2.489874      4.069698
  O       2.912291      0.804429      2.748941
30
Coordinates from ORCA-job Pt3Pt3 E -2076.523760802797
  Pt     -1.777297      1.044370     -0.509130
  Pt      0.829280      1.839065     -0.617260
  Pt     -0.004278     -0.305469     -2.082958
  C      -3.519276      1.274475      0.160789
  C      -0.864965      2.823308      0.067841
  C       2.198036      3.010766     -0.078101
  C       1.709076      0.858574     -2.226976
  C       0.359047     -1.684804     -3.308737
  C      -2.085721     -0.294719     -2.063800
  O      -4.584858      1.401681      0.603465
  O      -1.170913      3.889432      0.489041
  O       3.051354      3.710381      0.282505
  O       2.660416      0.965401     -2.927854
  O       0.585177     -2.556058     -4.041828
  O      -2.986435     -0.751625     -2.686337
  Pt      1.791017     -1.007898      0.533250
  Pt     -0.798157     -1.863676      0.592228
  Pt     -0.040004      0.291186      2.082902
  C       3.552208     -1.184492     -0.101894
  C       0.937633     -2.800501     -0.071682
  C      -2.125483     -3.065938      0.017894
  C      -1.729585     -0.920228      2.188487
  C      -0.465958      1.655478      3.305303
  C       2.035889      0.326184      2.109983
  O       4.632934     -1.270341     -0.516986
  O       1.276475     -3.856261     -0.493891
  O      -2.948874     -3.786797     -0.369486
  O      -2.689761     -1.054771      2.872295
  O      -0.739481      2.515585      4.035364
  O       2.912503      0.797691      2.755572
30
Coordinates from ORCA-job Pt3Pt3 E -2076.523824827859
  Pt     -1.776888      1.046559     -0.513264
  Pt      0.828119      1.841489     -0.622029
  Pt     -0.004857     -0.301824     -2.086157
  C      -3.514167      1.268812      0.169537
  C      -0.866499      2.827766      0.061376
  C       2.200292      3.003294     -0.072135
  C       1.707316      0.864873     -2.234724
  C       0.361555     -1.690982     -3.298927
  C      -2.086317     -0.289332     -2.071548
  O      -4.575362      1.386917      0.625571
  O      -1.172069      3.892844      0.485210
  O       3.056554      3.692743      0.301415
  O       2.658696      0.970604     -2.935537
  O       0.591723     -2.572044     -4.019192
  O      -2.986553     -0.747143     -2.693944
  Pt      1.790076     -1.010607      0.536850
  Pt     -0.797308     -1.865977      0.596949
  Pt     -0.039359      0.287920      2.085966
  C       3.547587     -1.176377     -0.109538
  C       0.937885     -2.805794     -0.064828
  C      -2.126165     -3.059749      0.010669
  C      -1.727766     -0.925096      2.196029
  C      -0.470178      1.660610      3.296390
  C       2.037272      0.320065      2.116413
  O       4.624293     -1.251694     -0.537427
  O       1.276395     -3.860770     -0.488944
  O      -2.952129     -3.770955     -0.389392
  O      -2.688537     -1.057984      2.879151
  O      -0.747481      2.529750      4.014543
  O       2.913870      0.792079      2.761516
30
Coordinates from ORCA-job Pt3Pt3 E -2076.523851819072
  Pt     -1.776983      1.048987     -0.516191
  Pt      0.827458      1.843781     -0.625973
  Pt     -0.005879     -0.298582     -2.089695
  C      -3.512538      1.268151      0.171455
  C      -0.867269      2.829786      0.058678
  C       2.201392      3.001546     -0.072705
  C       1.706964      0.868004     -2.238332
  C       0.361448     -1.691844     -3.297277
  C      -2.086613     -0.286919     -2.075240
  O      -4.572057      1.382007      0.631999
  O      -1.172978      3.894289      0.483842
  O       3.058947      3.686619      0.305319
  O       2.658704      0.973444     -2.938690
  O       0.593343     -2.576538     -4.012224
  O      -2.986555     -0.745427     -2.697594
  Pt      1.790222     -1.012624      0.540339
  Pt     -0.796429     -1.868416      0.600405
  Pt     -0.038837      0.284779      2.089597
  C       3.546431     -1.174125     -0.110039
  C       0.937750     -2.808351     -0.061716
  C      -2.125898     -3.059036      0.009567
  C      -1.727206     -0.927172      2.199801
  C      -0.471980      1.660542      3.295318
  C       2.038188      0.317680      2.119410
  O       4.621237     -1.245389     -0.542850
  O       1.276129     -3.862888     -0.487008
  O      -2.952950     -3.766163     -0.394900
  O      -2.688390     -1.059245      2.882527
  O      -0.750833      2.533175      4.008356
  O       2.915181      0.789931      2.763820
30
Coordinates from ORCA-job Pt3Pt3 E -2076.523875327695
  Pt     -1.777079      1.051388     -0.518654
  Pt      0.827199      1.846094     -0.629869
  Pt     -0.007016     -0.295282     -2.093560
  C      -3.511950      1.268086      0.171651
  C      -0.867493      2.830640      0.058034
  C       2.202855      3.001261     -0.075093
  C       1.707523      0.869626     -2.240296
  C       0.360779     -1.691298     -3.297845
  C      -2.086625     -0.286020     -2.077035
  O      -4.570462      1.377897      0.634752
  O      -1.173700      3.894609      0.484324
  O       3.061694      3.682694      0.305666
  O       2.659863      0.975165     -2.939903
  O       0.594180     -2.578673     -4.008486
  O      -2.986337     -0.745240     -2.699334
  Pt      1.790538     -1.014308      0.543803
  Pt     -0.795533     -1.870755      0.603478
  Pt     -0.038525      0.281467      2.093731
  C       3.546157     -1.173344     -0.108986
  C       0.937170     -2.809392     -0.060538
  C      -2.125704     -3.059426      0.010205
  C      -1.727513     -0.927853      2.201818
  C      -0.473471      1.659233      3.296681
  C       2.038753      0.317203      2.120850
  O       4.619349     -1.241682     -0.545442
  O       1.275466     -3.863524     -0.487002
  O      -2.953893     -3.763255     -0.396806
  O      -2.689122     -1.059392      2.884161
  O      -0.753616      2.534603      4.005388
  O       2.916511      0.789478      2.764303
30
Coordinates from ORCA-job Pt3Pt3 E -2076.523895353668
  Pt     -1.776681      1.052867     -0.519911
  Pt      0.827272      1.847586     -0.632554
  Pt     -0.007638     -0.292870     -2.096548
  C      -3.511510      1.267086      0.171862
  C      -0.866762      2.830092      0.059802
  C       2.204321      3.000921     -0.076986
  C       1.708961      0.869346     -2.240388
  C       0.360745     -1.690922     -3.298669
  C      -2.086402     -0.286814     -2.076696
  O      -4.569428      1.372456      0.636835
  O      -1.173576      3.893519      0.487140
  O       3.064552      3.678955      0.306036
  O       2.661981      0.975267     -2.939088
  O       0.595897     -2.580979     -4.005029
  O      -2.986081     -0.746508     -2.698811
  Pt      1.790584     -1.014991      0.546197
  Pt     -0.795121     -1.872241      0.605429
  Pt     -0.038437      0.278984      2.097043
  C       3.545791     -1.172467     -0.108528
  C       0.936378     -2.808905     -0.061685
  C      -2.126509     -3.059286      0.010900
  C      -1.728929     -0.927015      2.201818
  C      -0.474511      1.658251      3.298056
  C       2.038708      0.318965      2.120562
  O       4.617456     -1.238236     -0.548561
  O       1.274706     -3.862624     -0.489278
  O      -2.956266     -3.759811     -0.398010
  O      -2.690971     -1.058238      2.883723
  O      -0.755894      2.536424      4.002433
  O       2.917363      0.791189      2.762905
30
Coordinates from ORCA-job Pt3Pt3 E -2076.523914103744
  Pt     -1.775774      1.053198     -0.520185
  Pt      0.827743      1.848256     -0.634054
  Pt     -0.007620     -0.291330     -2.098419
  C      -3.510797      1.263953      0.172760
  C      -0.865173      2.828604      0.063894
  C       2.206208      2.999715     -0.077283
  C       1.711402      0.867239     -2.239111
  C       0.361743     -1.691161     -3.298328
  C      -2.086066     -0.289308     -2.074443
  O      -4.568263      1.363860      0.639827
  O      -1.172582      3.891386      0.492469
  O       3.068031      3.674029      0.308550
  O       2.665164      0.973560     -2.936760
  O       0.599138     -2.584550     -3.999614
  O      -2.985950     -0.749361     -2.695998
  Pt      1.790038     -1.014796      0.547334
  Pt     -0.795068     -1.872509      0.606327
  Pt     -0.038691      0.277348      2.099330
  C       3.544641     -1.170944     -0.109960
  C       0.935432     -2.806914     -0.065138
  C      -2.128191     -3.057445      0.011041
  C      -1.731557     -0.924908      2.199924
  C      -0.475576      1.658443      3.298394
  C       2.038099      0.322742      2.118883
  O       4.614582     -1.234020     -0.554452
  O       1.273870     -3.860070     -0.494050
  O      -2.960199     -3.754096     -0.399754
  O      -2.694120     -1.056038      2.881133
  O      -0.758150      2.540179      3.997699
  O       2.917685      0.794935      2.759981
30
Coordinates from ORCA-job Pt3Pt3 E -2076.523923772251
  Pt     -1.774646      1.052442     -0.519544
  Pt      0.828071      1.847762     -0.633676
  Pt     -0.006948     -0.291327     -2.098342
  C      -3.509776      1.260474      0.174215
  C      -0.863551      2.827061      0.067849
  C       2.207051      2.997947     -0.075583
  C       1.713393      0.864807     -2.237386
  C       0.363517     -1.692271     -3.296797
  C      -2.085847     -0.291835     -2.071978
  O      -4.567115      1.356749      0.642632
  O      -1.171066      3.889369      0.497411
  O       3.069716      3.670262      0.312215
  O       2.667593      0.971207     -2.934366
  O       0.602579     -2.587951     -3.994788
  O      -2.986141     -0.751943     -2.692798
  Pt      1.789202     -1.013891      0.546944
  Pt     -0.795488     -1.871771      0.605988
  Pt     -0.038970      0.277309      2.099516
  C       3.543062     -1.169056     -0.112645
  C       0.934996     -2.805029     -0.068735
  C      -2.130169     -3.054878      0.010208
  C      -1.733973     -0.922911      2.197684
  C      -0.475852      1.659786      3.296947
  C       2.037355      0.326312      2.117040
  O       4.611902     -1.230700     -0.560319
  O       1.273606     -3.857705     -0.498610
  O      -2.963947     -3.748984     -0.401669
  O      -2.696982     -1.054053      2.878192
  O      -0.758889      2.544018      3.993068
  O       2.917316      0.798800      2.757325
30
Coordinates from ORCA-job Pt3Pt3 E -2076.523926956296
  Pt     -1.774134      1.051691     -0.519147
  Pt      0.828278      1.847178     -0.632887
  Pt     -0.006387     -0.291821     -2.097562
  C      -3.509210      1.258295      0.175067
  C      -0.862903      2.826523      0.069720
  C       2.207343      2.996789     -0.073712
  C       1.714308      0.863573     -2.236548
  C       0.364746     -1.693101     -3.295192
  C      -2.085791     -0.293165     -2.070802
  O      -4.566596      1.353559      0.643897
  O      -1.170190      3.888616      0.499889
  O       3.070036      3.668912      0.314753
  O       2.668672      0.969662     -2.933303
  O       0.604331     -2.589451     -3.992344
  O      -2.986417     -0.753380     -2.690964
  Pt      1.788555     -1.013325      0.546197
  Pt     -0.795726     -1.870905      0.605443
  Pt     -0.039241      0.277799      2.098821
  C       3.541935     -1.168111     -0.114794
  C       0.934933     -2.804031     -0.070597
  C      -2.131011     -3.053067      0.009479
  C      -1.735077     -0.922080      2.196455
  C      -0.475883      1.661124      3.295451
  C       2.036975      0.327791      2.116173
  O       4.610465     -1.229723     -0.563556
  O       1.273613     -3.856410     -0.501028
  O      -2.965455     -3.746592     -0.402394
  O      -2.698383     -1.053284      2.876451
  O      -0.758624      2.546202      3.990832
  O       2.916840      0.800733      2.756200
30
Coordinates from ORCA-job Pt3Pt3 E -2076.523928027444
  Pt     -1.773842      1.051477     -0.519145
  Pt      0.828218      1.846849     -0.632447
  Pt     -0.006094     -0.292060     -2.097161
  C      -3.508834      1.257563      0.175381
  C      -0.862679      2.826309      0.070397
  C       2.207096      2.996272     -0.072678
  C       1.714600      0.863265     -2.236208
  C       0.365475     -1.693603     -3.294417
  C      -2.085734     -0.293626     -2.070580
  O      -4.566319      1.352850      0.644131
  O      -1.169644      3.888255      0.501095
  O       3.069533      3.668879      0.315696
  O       2.669093      0.968971     -2.932817
  O       0.605153     -2.589909     -3.991697
  O      -2.986605     -0.754011     -2.690224
  Pt      1.788265     -1.013122      0.545995
  Pt     -0.795902     -1.870681      0.605295
  Pt     -0.039329      0.278046      2.098451
  C       3.541326     -1.167637     -0.115788
  C       0.934993     -2.803866     -0.071326
  C      -2.131491     -3.052422      0.009119
  C      -1.735528     -0.921868      2.196183
  C      -0.475601      1.661804      3.294531
  C       2.036875      0.328232      2.115948
  O       4.609820     -1.229646     -0.564724
  O       1.273707     -3.856025     -0.502236
  O      -2.966076     -3.746086     -0.402405
  O      -2.699120     -1.052976      2.875761
  O      -0.757885      2.546968      3.990089
  O       2.916528      0.801798      2.755779
